REMARK  11 active torsions:
REMARK  status: ('A' for Active; 'I' for Inactive)
REMARK    1  A    between atoms: C20_3  and  C36_4 
REMARK    2  A    between atoms: C16_8  and  C35_9 
REMARK    3  A    between atoms: C5_13  and  O36_14 
REMARK    4  A    between atoms: C8_19  and  C25_20 
REMARK    5  A    between atoms: C10_22  and  O26_23 
REMARK    6  A    between atoms: O26_23  and  C27_24 
REMARK    7  A    between atoms: C11_25  and  O28_26 
REMARK    8  A    between atoms: C12_27  and  C29_28 
REMARK    9  A    between atoms: C14_30  and  C30_31 
REMARK   10  A    between atoms: C15_32  and  O31_33 
REMARK   11  A    between atoms: O31_33  and  C32_34 
REMARK       I    between atoms: C32_34  and  N34_36 
ROOT
ATOM      1  O37 BC6 d          42.418  -7.284  41.565  0.00  0.00    -0.268 OA
ATOM      2  C21 BC6 d          41.823  -7.355  40.493  0.00  0.00     0.251 C 
ATOM      3  C20 BC6 d          41.661  -8.689  39.936  0.00  0.00     0.002 C 
ATOM      4  C19 BC6 d          40.401  -9.153  39.674  0.00  0.00    -0.092 C 
ATOM      5  C18 BC6 d          40.016 -10.488  39.122  0.00  0.00    -0.049 C 
ATOM      6  C17 BC6 d          38.740 -10.273  38.303  0.00  0.00    -0.057 C 
ATOM      7  C16 BC6 d          37.462 -10.129  39.126  0.00  0.00    -0.028 C 
ATOM      8  N22 BC6 d          41.381  -6.225  39.918  0.00  0.00    -0.323 N 
ATOM      9  C3  BC6 d          40.981  -6.079  38.612  0.00  0.00     0.038 A 
ATOM     10  C4  BC6 d          39.879  -5.279  38.357  0.00  0.00    -0.025 A 
ATOM     11  C5  BC6 d          39.416  -5.079  37.055  0.00  0.00     0.068 A 
ATOM     12  C6  BC6 d          40.049  -5.689  35.974  0.00  0.00    -0.045 A 
ATOM     13  C1  BC6 d          41.164  -6.518  36.223  0.00  0.00    -0.053 A 
ATOM     14  C2  BC6 d          41.629  -6.683  37.533  0.00  0.00    -0.051 A 
ATOM     15  C7  BC6 d          41.884  -7.248  35.108  0.00  0.00    -0.038 C 
ATOM     16  C8  BC6 d          41.242  -8.614  34.759  0.00  0.00    -0.051 C 
ATOM     17  C9  BC6 d          39.762  -8.454  34.308  0.00  0.00    -0.035 C 
ATOM     18  C10 BC6 d          38.993  -9.736  34.007  0.00  0.00     0.063 C 
ATOM     19  C11 BC6 d          37.579  -9.460  33.493  0.00  0.00     0.067 C 
ATOM     20  C12 BC6 d          36.753  -8.659  34.507  0.00  0.00    -0.014 C 
ATOM     21  C13 BC6 d          36.546  -9.445  35.797  0.00  0.00    -0.092 C 
ATOM     22  C14 BC6 d          36.504  -8.960  37.072  0.00  0.00    -0.058 C 
ATOM     23  C15 BC6 d          36.244  -9.952  38.184  0.00  0.00     0.074 C 
ATOM     24  H4  BC6 d          39.583  -8.469  39.892  0.00  0.00     0.077 H 
ATOM     25  H5  BC6 d          39.825 -11.197  39.941  0.00  0.00     0.038 H 
ATOM     26  H6  BC6 d          40.818 -10.879  38.478  0.00  0.00     0.038 H 
ATOM     27  H7  BC6 d          38.616 -11.135  37.631  0.00  0.00     0.034 H 
ATOM     28  H8  BC6 d          38.866  -9.358  37.706  0.00  0.00     0.034 H 
ATOM     29  H9  BC6 d          37.558  -9.222  39.742  0.00  0.00     0.043 H 
ATOM     30  H13 BC6 d          41.340  -5.411  40.496  0.00  0.00     0.169 HD
ATOM     31  H14 BC6 d          39.368  -4.799  39.184  0.00  0.00     0.091 H 
ATOM     32  H16 BC6 d          39.692  -5.532  34.963  0.00  0.00     0.088 H 
ATOM     33  H17 BC6 d          42.508  -7.291  37.713  0.00  0.00     0.087 H 
ATOM     34  H18 BC6 d          42.925  -7.420  35.418  0.00  0.00     0.040 H 
ATOM     35  H19 BC6 d          41.869  -6.615  34.209  0.00  0.00     0.040 H 
ATOM     36  H20 BC6 d          41.797  -9.004  33.893  0.00  0.00     0.040 H 
ATOM     37  H24 BC6 d          39.757  -7.840  33.395  0.00  0.00     0.037 H 
ATOM     38  H25 BC6 d          39.225  -7.924  35.109  0.00  0.00     0.037 H 
ATOM     39  H26 BC6 d          38.924 -10.322  34.935  0.00  0.00     0.087 H 
ATOM     40  H30 BC6 d          37.065 -10.412  33.294  0.00  0.00     0.087 H 
ATOM     41  H32 BC6 d          37.235  -7.691  34.713  0.00  0.00     0.049 H 
ATOM     42  H36 BC6 d          36.416 -10.521  35.688  0.00  0.00     0.078 H 
ATOM     43  H40 BC6 d          35.963 -10.924  37.751  0.00  0.00     0.092 H 
ENDROOT
BRANCH  23  44
ATOM     44  O31 BC6 d          35.192  -9.433  38.984  0.00  0.00    -0.294 OA
BRANCH  44  45
ATOM     45  C32 BC6 d          33.873  -9.950  38.752  0.00  0.00     0.358 C 
ATOM     46  O33 BC6 d          33.708 -10.740  37.837  0.00  0.00    -0.239 OA
ATOM     47  N34 BC6 d          32.956  -9.500  39.594  0.00  0.00    -0.346 N 
ATOM     48  H41 BC6 d          32.006  -9.801  39.508  0.00  0.00     0.161 HD
ATOM     49  H42 BC6 d          33.213  -8.859  40.317  0.00  0.00     0.161 HD
ENDBRANCH  44  45
ENDBRANCH  23  44
BRANCH   7  50
ATOM     50  C35 BC6 d          37.241 -11.321  40.072  0.00  0.00    -0.070 C 
ATOM     51  H10 BC6 d          38.089 -11.399  40.768  0.00  0.00     0.028 H 
ATOM     52  H11 BC6 d          37.164 -12.246  39.483  0.00  0.00     0.028 H 
ATOM     53  H12 BC6 d          36.312 -11.169  40.641  0.00  0.00     0.028 H 
ENDBRANCH   7  50
BRANCH  22  54
ATOM     54  C30 BC6 d          36.656  -7.499  37.413  0.00  0.00    -0.052 C 
ATOM     55  H37 BC6 d          36.879  -6.930  36.498  0.00  0.00     0.033 H 
ATOM     56  H38 BC6 d          37.479  -7.375  38.132  0.00  0.00     0.033 H 
ATOM     57  H39 BC6 d          35.721  -7.128  37.859  0.00  0.00     0.033 H 
ENDBRANCH  22  54
BRANCH  20  58
ATOM     58  C29 BC6 d          35.359  -8.476  33.917  0.00  0.00    -0.067 C 
ATOM     59  H33 BC6 d          34.902  -9.462  33.743  0.00  0.00     0.028 H 
ATOM     60  H34 BC6 d          35.431  -7.932  32.964  0.00  0.00     0.028 H 
ATOM     61  H35 BC6 d          34.736  -7.903  34.620  0.00  0.00     0.028 H 
ENDBRANCH  20  58
BRANCH  19  62
ATOM     62  O28 BC6 d          37.739  -8.721  32.262  0.00  0.00    -0.392 OA
ATOM     63  H31 BC6 d          38.398  -9.143  31.724  0.00  0.00     0.210 HD
ENDBRANCH  19  62
BRANCH   3  64
ATOM     64  C36 BC6 d          42.905  -9.510  39.759  0.00  0.00    -0.046 C 
ATOM     65  H1  BC6 d          42.649 -10.463  39.272  0.00  0.00     0.033 H 
ATOM     66  H2  BC6 d          43.356  -9.709  40.742  0.00  0.00     0.033 H 
ATOM     67  H3  BC6 d          43.621  -8.958  39.131  0.00  0.00     0.033 H 
ENDBRANCH   3  64
BRANCH  18  68
ATOM     68  O26 BC6 d          39.683 -10.515  33.006  0.00  0.00    -0.388 OA
BRANCH  68  69
ATOM     69  C27 BC6 d          41.025 -10.132  32.800  0.00  0.00     0.005 C 
ATOM     70  H27 BC6 d          41.586 -10.244  33.739  0.00  0.00     0.066 H 
ATOM     71  H28 BC6 d          41.061  -9.083  32.473  0.00  0.00     0.066 H 
ATOM     72  H29 BC6 d          41.474 -10.772  32.026  0.00  0.00     0.066 H 
ENDBRANCH  68  69
ENDBRANCH  18  68
BRANCH  16  73
ATOM     73  C25 BC6 d          41.383  -9.665  35.875  0.00  0.00    -0.073 C 
ATOM     74  H21 BC6 d          40.895  -9.297  36.789  0.00  0.00     0.028 H 
ATOM     75  H22 BC6 d          42.450  -9.846  36.076  0.00  0.00     0.028 H 
ATOM     76  H23 BC6 d          40.907 -10.604  35.557  0.00  0.00     0.028 H 
ENDBRANCH  16  73
BRANCH  11  77
ATOM     77  O36 BC6 d          38.295  -4.317  36.888  0.00  0.00    -0.361 OA
ATOM     78  H15 BC6 d          37.984  -4.023  37.737  0.00  0.00     0.217 HD
ENDBRANCH  11  77
TORSDOF 11
