REMARK  11 active torsions:
REMARK  status: ('A' for Active; 'I' for Inactive)
REMARK    1  A    between atoms: C20_3  and  C36_4 
REMARK    2  A    between atoms: C16_8  and  C35_9 
REMARK    3  A    between atoms: C5_13  and  O36_14 
REMARK    4  A    between atoms: C8_19  and  C25_20 
REMARK    5  A    between atoms: C10_22  and  O26_23 
REMARK    6  A    between atoms: O26_23  and  C27_24 
REMARK    7  A    between atoms: C11_25  and  O28_26 
REMARK    8  A    between atoms: C12_27  and  C29_28 
REMARK    9  A    between atoms: C14_30  and  C30_31 
REMARK   10  A    between atoms: C15_32  and  O31_33 
REMARK   11  A    between atoms: O31_33  and  C32_34 
REMARK       I    between atoms: C32_34  and  N34_36 
ROOT
ATOM      1  O37 BC6 d          37.527  -0.617  40.841  0.00  0.00    -0.268 OA
ATOM      2  C21 BC6 d          38.001  -1.239  39.894  0.00  0.00     0.251 C 
ATOM      3  C20 BC6 d          39.292  -1.870  40.121  0.00  0.00     0.002 C 
ATOM      4  C19 BC6 d          39.414  -3.221  39.946  0.00  0.00    -0.092 C 
ATOM      5  C18 BC6 d          40.635  -4.061  40.140  0.00  0.00    -0.049 C 
ATOM      6  C17 BC6 d          40.540  -5.214  39.138  0.00  0.00    -0.057 C 
ATOM      7  C16 BC6 d          39.580  -6.333  39.533  0.00  0.00    -0.028 C 
ATOM      8  N22 BC6 d          37.317  -1.287  38.740  0.00  0.00    -0.323 N 
ATOM      9  C3  BC6 d          37.812  -1.660  37.514  0.00  0.00     0.038 A 
ATOM     10  C4  BC6 d          37.002  -2.428  36.694  0.00  0.00    -0.025 A 
ATOM     11  C5  BC6 d          37.436  -2.841  35.433  0.00  0.00     0.068 A 
ATOM     12  C6  BC6 d          38.703  -2.496  34.968  0.00  0.00    -0.045 A 
ATOM     13  C1  BC6 d          39.541  -1.725  35.801  0.00  0.00    -0.053 A 
ATOM     14  C2  BC6 d          39.078  -1.298  37.051  0.00  0.00    -0.051 A 
ATOM     15  C7  BC6 d          40.947  -1.341  35.387  0.00  0.00    -0.038 C 
ATOM     16  C8  BC6 d          42.001  -2.424  35.724  0.00  0.00    -0.051 C 
ATOM     17  C9  BC6 d          41.680  -3.775  35.021  0.00  0.00    -0.035 C 
ATOM     18  C10 BC6 d          42.604  -4.948  35.333  0.00  0.00     0.063 C 
ATOM     19  C11 BC6 d          42.248  -6.199  34.528  0.00  0.00     0.067 C 
ATOM     20  C12 BC6 d          40.813  -6.662  34.803  0.00  0.00    -0.014 C 
ATOM     21  C13 BC6 d          40.635  -7.079  36.259  0.00  0.00    -0.092 C 
ATOM     22  C14 BC6 d          39.536  -6.906  37.048  0.00  0.00    -0.058 C 
ATOM     23  C15 BC6 d          39.600  -7.451  38.458  0.00  0.00     0.074 C 
ATOM     24  H4  BC6 d          38.516  -3.746  39.626  0.00  0.00     0.077 H 
ATOM     25  H5  BC6 d          40.666  -4.453  41.168  0.00  0.00     0.038 H 
ATOM     26  H6  BC6 d          41.541  -3.465  39.948  0.00  0.00     0.038 H 
ATOM     27  H7  BC6 d          41.543  -5.650  39.022  0.00  0.00     0.034 H 
ATOM     28  H8  BC6 d          40.206  -4.803  38.174  0.00  0.00     0.034 H 
ATOM     29  H9  BC6 d          38.565  -5.910  39.573  0.00  0.00     0.043 H 
ATOM     30  H13 BC6 d          36.353  -1.025  38.777  0.00  0.00     0.169 HD
ATOM     31  H14 BC6 d          36.014  -2.713  37.038  0.00  0.00     0.091 H 
ATOM     32  H16 BC6 d          39.038  -2.814  33.988  0.00  0.00     0.088 H 
ATOM     33  H17 BC6 d          39.714  -0.675  37.670  0.00  0.00     0.087 H 
ATOM     34  H18 BC6 d          41.223  -0.411  35.906  0.00  0.00     0.040 H 
ATOM     35  H19 BC6 d          40.957  -1.170  34.300  0.00  0.00     0.040 H 
ATOM     36  H20 BC6 d          42.955  -2.069  35.307  0.00  0.00     0.040 H 
ATOM     37  H24 BC6 d          41.715  -3.603  33.936  0.00  0.00     0.037 H 
ATOM     38  H25 BC6 d          40.661  -4.068  35.313  0.00  0.00     0.037 H 
ATOM     39  H26 BC6 d          42.516  -5.181  36.404  0.00  0.00     0.087 H 
ATOM     40  H30 BC6 d          42.938  -7.015  34.788  0.00  0.00     0.087 H 
ATOM     41  H32 BC6 d          40.098  -5.870  34.534  0.00  0.00     0.049 H 
ATOM     42  H36 BC6 d          41.486  -7.575  36.723  0.00  0.00     0.078 H 
ATOM     43  H40 BC6 d          40.506  -8.063  38.574  0.00  0.00     0.092 H 
ENDROOT
BRANCH  23  44
ATOM     44  O31 BC6 d          38.432  -8.231  38.670  0.00  0.00    -0.294 OA
BRANCH  44  45
ATOM     45  C32 BC6 d          38.561  -9.655  38.539  0.00  0.00     0.358 C 
ATOM     46  O33 BC6 d          39.631 -10.114  38.177  0.00  0.00    -0.239 OA
ATOM     47  N34 BC6 d          37.464 -10.330  38.845  0.00  0.00    -0.346 N 
ATOM     48  H41 BC6 d          37.456 -11.328  38.779  0.00  0.00     0.161 HD
ATOM     49  H42 BC6 d          36.643  -9.842  39.143  0.00  0.00     0.161 HD
ENDBRANCH  44  45
ENDBRANCH  23  44
BRANCH   7  50
ATOM     50  C35 BC6 d          39.904  -6.916  40.919  0.00  0.00    -0.070 C 
ATOM     51  H10 BC6 d          39.833  -6.122  41.677  0.00  0.00     0.028 H 
ATOM     52  H11 BC6 d          40.924  -7.328  40.914  0.00  0.00     0.028 H 
ATOM     53  H12 BC6 d          39.186  -7.715  41.157  0.00  0.00     0.028 H 
ENDBRANCH   7  50
BRANCH  22  54
ATOM     54  C30 BC6 d          38.264  -6.250  36.574  0.00  0.00    -0.052 C 
ATOM     55  H37 BC6 d          38.404  -5.878  35.547  0.00  0.00     0.033 H 
ATOM     56  H38 BC6 d          38.016  -5.408  37.237  0.00  0.00     0.033 H 
ATOM     57  H39 BC6 d          37.445  -6.984  36.590  0.00  0.00     0.033 H 
ENDBRANCH  22  54
BRANCH  20  58
ATOM     58  C29 BC6 d          40.578  -7.930  33.988  0.00  0.00    -0.067 C 
ATOM     59  H33 BC6 d          41.297  -8.703  34.298  0.00  0.00     0.028 H 
ATOM     60  H34 BC6 d          40.713  -7.710  32.919  0.00  0.00     0.028 H 
ATOM     61  H35 BC6 d          39.554  -8.291  34.161  0.00  0.00     0.028 H 
ENDBRANCH  20  58
BRANCH  19  62
ATOM     62  O28 BC6 d          42.415  -5.840  33.138  0.00  0.00    -0.392 OA
ATOM     63  H31 BC6 d          43.241  -5.386  33.027  0.00  0.00     0.210 HD
ENDBRANCH  19  62
BRANCH   3  64
ATOM     64  C36 BC6 d          40.402  -0.990  40.617  0.00  0.00    -0.046 C 
ATOM     65  H1  BC6 d          41.332  -1.575  40.683  0.00  0.00     0.033 H 
ATOM     66  H2  BC6 d          40.143  -0.600  41.612  0.00  0.00     0.033 H 
ATOM     67  H3  BC6 d          40.545  -0.151  39.920  0.00  0.00     0.033 H 
ENDBRANCH   3  64
BRANCH  18  68
ATOM     68  O26 BC6 d          43.974  -4.604  35.034  0.00  0.00    -0.388 OA
BRANCH  68  69
ATOM     69  C27 BC6 d          44.925  -5.276  35.830  0.00  0.00     0.005 C 
ATOM     70  H27 BC6 d          44.826  -6.361  35.682  0.00  0.00     0.066 H 
ATOM     71  H28 BC6 d          44.755  -5.033  36.888  0.00  0.00     0.066 H 
ATOM     72  H29 BC6 d          45.937  -4.957  35.538  0.00  0.00     0.066 H 
ENDBRANCH  68  69
ENDBRANCH  18  68
BRANCH  16  73
ATOM     73  C25 BC6 d          42.231  -2.612  37.234  0.00  0.00    -0.073 C 
ATOM     74  H21 BC6 d          41.287  -2.911  37.714  0.00  0.00     0.028 H 
ATOM     75  H22 BC6 d          42.582  -1.666  37.672  0.00  0.00     0.028 H 
ATOM     76  H23 BC6 d          42.988  -3.394  37.396  0.00  0.00     0.028 H 
ENDBRANCH  16  73
BRANCH  11  77
ATOM     77  O36 BC6 d          36.600  -3.638  34.703  0.00  0.00    -0.361 OA
ATOM     78  H15 BC6 d          35.804  -3.798  35.197  0.00  0.00     0.217 HD
ENDBRANCH  11  77
TORSDOF 11
