REMARK  11 active torsions:
REMARK  status: ('A' for Active; 'I' for Inactive)
REMARK    1  A    between atoms: C20_3  and  C36_4 
REMARK    2  A    between atoms: C16_8  and  C35_9 
REMARK    3  A    between atoms: C5_13  and  O36_14 
REMARK    4  A    between atoms: C8_19  and  C25_20 
REMARK    5  A    between atoms: C10_22  and  O26_23 
REMARK    6  A    between atoms: O26_23  and  C27_24 
REMARK    7  A    between atoms: C11_25  and  O28_26 
REMARK    8  A    between atoms: C12_27  and  C29_28 
REMARK    9  A    between atoms: C14_30  and  C30_31 
REMARK   10  A    between atoms: C15_32  and  O31_33 
REMARK   11  A    between atoms: O31_33  and  C32_34 
REMARK       I    between atoms: C32_34  and  N34_36 
ROOT
ATOM      1  O37 BC6 d          40.373  -4.205  40.624  0.00  0.00    -0.268 OA
ATOM      2  C21 BC6 d          40.249  -5.070  39.762  0.00  0.00     0.251 C 
ATOM      3  C20 BC6 d          40.744  -6.395  40.104  0.00  0.00     0.002 C 
ATOM      4  C19 BC6 d          39.885  -7.458  40.061  0.00  0.00    -0.092 C 
ATOM      5  C18 BC6 d          40.182  -8.886  40.388  0.00  0.00    -0.049 C 
ATOM      6  C17 BC6 d          39.278  -9.740  39.493  0.00  0.00    -0.057 C 
ATOM      7  C16 BC6 d          37.823  -9.830  39.947  0.00  0.00    -0.028 C 
ATOM      8  N22 BC6 d          39.688  -4.741  38.587  0.00  0.00    -0.323 N 
ATOM      9  C3  BC6 d          39.743  -5.471  37.425  0.00  0.00     0.038 A 
ATOM     10  C4  BC6 d          38.602  -5.535  36.644  0.00  0.00    -0.025 A 
ATOM     11  C5  BC6 d          38.583  -6.255  35.447  0.00  0.00     0.068 A 
ATOM     12  C6  BC6 d          39.717  -6.936  35.010  0.00  0.00    -0.045 A 
ATOM     13  C1  BC6 d          40.883  -6.888  35.805  0.00  0.00    -0.053 A 
ATOM     14  C2  BC6 d          40.888  -6.140  36.987  0.00  0.00    -0.051 A 
ATOM     15  C7  BC6 d          42.145  -7.633  35.420  0.00  0.00    -0.038 C 
ATOM     16  C8  BC6 d          42.157  -9.105  35.904  0.00  0.00    -0.051 C 
ATOM     17  C9  BC6 d          40.964  -9.912  35.317  0.00  0.00    -0.035 C 
ATOM     18  C10 BC6 d          40.820 -11.358  35.777  0.00  0.00     0.063 C 
ATOM     19  C11 BC6 d          39.668 -12.081  35.077  0.00  0.00     0.067 C 
ATOM     20  C12 BC6 d          38.325 -11.385  35.328  0.00  0.00    -0.014 C 
ATOM     21  C13 BC6 d          37.954 -11.415  36.807  0.00  0.00    -0.092 C 
ATOM     22  C14 BC6 d          37.312 -10.450  37.527  0.00  0.00    -0.058 C 
ATOM     23  C15 BC6 d          37.025 -10.744  38.982  0.00  0.00     0.074 C 
ATOM     24  H4  BC6 d          38.864  -7.239  39.751  0.00  0.00     0.077 H 
ATOM     25  H5  BC6 d          39.965  -9.086  41.447  0.00  0.00     0.038 H 
ATOM     26  H6  BC6 d          41.240  -9.111  40.182  0.00  0.00     0.038 H 
ATOM     27  H7  BC6 d          39.690 -10.759  39.464  0.00  0.00     0.034 H 
ATOM     28  H8  BC6 d          39.294  -9.309  38.482  0.00  0.00     0.034 H 
ATOM     29  H9  BC6 d          37.391  -8.819  39.902  0.00  0.00     0.043 H 
ATOM     30  H13 BC6 d          39.180  -3.881  38.556  0.00  0.00     0.169 HD
ATOM     31  H14 BC6 d          37.706  -5.018  36.968  0.00  0.00     0.091 H 
ATOM     32  H16 BC6 d          39.704  -7.491  34.080  0.00  0.00     0.088 H 
ATOM     33  H17 BC6 d          41.798  -6.078  37.574  0.00  0.00     0.087 H 
ATOM     34  H18 BC6 d          43.007  -7.112  35.863  0.00  0.00     0.040 H 
ATOM     35  H19 BC6 d          42.235  -7.625  34.324  0.00  0.00     0.040 H 
ATOM     36  H20 BC6 d          43.075  -9.556  35.499  0.00  0.00     0.040 H 
ATOM     37  H24 BC6 d          41.074  -9.920  34.222  0.00  0.00     0.037 H 
ATOM     38  H25 BC6 d          40.038  -9.383  35.588  0.00  0.00     0.037 H 
ATOM     39  H26 BC6 d          40.630 -11.358  36.860  0.00  0.00     0.087 H 
ATOM     40  H30 BC6 d          39.603 -13.116  35.443  0.00  0.00     0.087 H 
ATOM     41  H32 BC6 d          38.355 -10.350  34.955  0.00  0.00     0.049 H 
ATOM     42  H36 BC6 d          38.235 -12.315  37.354  0.00  0.00     0.078 H 
ATOM     43  H40 BC6 d          37.252 -11.799  39.196  0.00  0.00     0.092 H 
ENDROOT
BRANCH  23  44
ATOM     44  O31 BC6 d          35.652 -10.467  39.213  0.00  0.00    -0.294 OA
BRANCH  44  45
ATOM     45  C32 BC6 d          35.334  -9.557  40.277  0.00  0.00     0.358 C 
ATOM     46  O33 BC6 d          34.169  -9.238  40.445  0.00  0.00    -0.239 OA
ATOM     47  N34 BC6 d          36.381  -9.160  40.984  0.00  0.00    -0.346 N 
ATOM     48  H41 BC6 d          36.259  -8.521  41.743  0.00  0.00     0.161 HD
ATOM     49  H42 BC6 d          37.294  -9.500  40.759  0.00  0.00     0.161 HD
ENDBRANCH  44  45
ENDBRANCH  23  44
BRANCH   7  50
ATOM     50  C35 BC6 d          37.695 -10.334  41.394  0.00  0.00    -0.070 C 
ATOM     51  H10 BC6 d          38.222  -9.644  42.071  0.00  0.00     0.028 H 
ATOM     52  H11 BC6 d          38.140 -11.336  41.474  0.00  0.00     0.028 H 
ATOM     53  H12 BC6 d          36.632 -10.380  41.673  0.00  0.00     0.028 H 
ENDBRANCH   7  50
BRANCH  22  54
ATOM     54  C30 BC6 d          36.841  -9.145  36.936  0.00  0.00    -0.052 C 
ATOM     55  H37 BC6 d          37.167  -9.079  35.887  0.00  0.00     0.033 H 
ATOM     56  H38 BC6 d          37.271  -8.308  37.507  0.00  0.00     0.033 H 
ATOM     57  H39 BC6 d          35.744  -9.096  36.984  0.00  0.00     0.033 H 
ENDBRANCH  22  54
BRANCH  20  58
ATOM     58  C29 BC6 d          37.247 -12.204  34.625  0.00  0.00    -0.067 C 
ATOM     59  H33 BC6 d          37.235 -13.224  35.037  0.00  0.00     0.028 H 
ATOM     60  H34 BC6 d          37.463 -12.246  33.548  0.00  0.00     0.028 H 
ATOM     61  H35 BC6 d          36.267 -11.732  34.784  0.00  0.00     0.028 H 
ENDBRANCH  20  58
BRANCH  19  62
ATOM     62  O28 BC6 d          39.992 -12.077  33.669  0.00  0.00    -0.392 OA
ATOM     63  H31 BC6 d          40.897 -12.339  33.553  0.00  0.00     0.210 HD
ENDBRANCH  19  62
BRANCH   3  64
ATOM     64  C36 BC6 d          42.168  -6.492  40.566  0.00  0.00    -0.046 C 
ATOM     65  H1  BC6 d          42.430  -7.548  40.728  0.00  0.00     0.033 H 
ATOM     66  H2  BC6 d          42.287  -5.936  41.508  0.00  0.00     0.033 H 
ATOM     67  H3  BC6 d          42.832  -6.063  39.801  0.00  0.00     0.033 H 
ENDBRANCH   3  64
BRANCH  18  68
ATOM     68  O26 BC6 d          42.032 -12.096  35.510  0.00  0.00    -0.388 OA
BRANCH  68  69
ATOM     69  C27 BC6 d          42.272 -13.157  36.406  0.00  0.00     0.005 C 
ATOM     70  H27 BC6 d          41.441 -13.875  36.356  0.00  0.00     0.066 H 
ATOM     71  H28 BC6 d          42.354 -12.762  37.429  0.00  0.00     0.066 H 
ATOM     72  H29 BC6 d          43.211 -13.663  36.133  0.00  0.00     0.066 H 
ENDBRANCH  68  69
ENDBRANCH  18  68
BRANCH  16  73
ATOM     73  C25 BC6 d          42.240  -9.250  37.434  0.00  0.00    -0.073 C 
ATOM     74  H21 BC6 d          41.371  -8.759  37.897  0.00  0.00     0.028 H 
ATOM     75  H22 BC6 d          43.165  -8.778  37.798  0.00  0.00     0.028 H 
ATOM     76  H23 BC6 d          42.245 -10.317  37.702  0.00  0.00     0.028 H 
ENDBRANCH  16  73
BRANCH  11  77
ATOM     77  O36 BC6 d          37.406  -6.313  34.757  0.00  0.00    -0.361 OA
ATOM     78  H15 BC6 d          36.740  -5.825  35.228  0.00  0.00     0.217 HD
ENDBRANCH  11  77
TORSDOF 11
