REMARK  11 active torsions:
REMARK  status: ('A' for Active; 'I' for Inactive)
REMARK    1  A    between atoms: C_3  and  C_4 
REMARK    2  A    between atoms: C_8  and  C_9 
REMARK    3  A    between atoms: C_13  and  O_14 
REMARK    4  A    between atoms: C_19  and  C_20 
REMARK    5  A    between atoms: C_22  and  O_23 
REMARK    6  A    between atoms: O_23  and  C_24 
REMARK    7  A    between atoms: C_25  and  O_26 
REMARK    8  A    between atoms: C_27  and  C_28 
REMARK    9  A    between atoms: C_30  and  C_31 
REMARK   10  A    between atoms: C_32  and  O_33 
REMARK   11  A    between atoms: O_33  and  C_34 
ROOT
ATOM      1  O   BC6 d          40.404  -4.558  41.142  0.00  0.00    -0.268 OA
ATOM      2  C   BC6 d          40.776  -5.086  40.103  0.00  0.00     0.251 C 
ATOM      3  C   BC6 d          41.313  -6.346  40.202  0.00  0.00     0.002 C 
ATOM      4  C   BC6 d          40.689  -7.383  39.592  0.00  0.00    -0.092 C 
ATOM      5  C   BC6 d          41.067  -8.790  39.676  0.00  0.00    -0.049 C 
ATOM      6  C   BC6 d          40.372  -9.719  38.636  0.00  0.00    -0.057 C 
ATOM      7  C   BC6 d          38.831  -9.987  38.788  0.00  0.00    -0.028 C 
ATOM      8  N   BC6 d          40.450  -4.410  39.004  0.00  0.00    -0.323 N 
ATOM      9  C   BC6 d          40.649  -4.698  37.687  0.00  0.00     0.038 A 
ATOM     10  C   BC6 d          39.622  -4.321  36.799  0.00  0.00    -0.025 A 
ATOM     11  C   BC6 d          39.756  -4.531  35.417  0.00  0.00     0.068 A 
ATOM     12  C   BC6 d          40.931  -5.116  34.910  0.00  0.00    -0.045 A 
ATOM     13  C   BC6 d          41.986  -5.489  35.774  0.00  0.00    -0.053 A 
ATOM     14  C   BC6 d          41.834  -5.261  37.164  0.00  0.00    -0.051 A 
ATOM     15  C   BC6 d          43.235  -6.081  35.217  0.00  0.00    -0.038 C 
ATOM     16  C   BC6 d          43.374  -7.639  35.324  0.00  0.00    -0.051 C 
ATOM     17  C   BC6 d          42.208  -8.360  34.572  0.00  0.00    -0.035 C 
ATOM     18  C   BC6 d          42.217  -9.921  34.535  0.00  0.00     0.063 C 
ATOM     19  C   BC6 d          41.144 -10.534  33.575  0.00  0.00     0.067 C 
ATOM     20  C   BC6 d          39.638 -10.228  33.916  0.00  0.00    -0.014 C 
ATOM     21  C   BC6 d          39.255 -10.665  35.264  0.00  0.00    -0.092 C 
ATOM     22  C   BC6 d          38.502 -10.040  36.208  0.00  0.00    -0.058 C 
ATOM     23  C   BC6 d          38.247 -10.716  37.512  0.00  0.00     0.073 C 
ATOM     24  H   BC6 d          39.894  -7.175  39.032  0.00  0.00     0.077 H 
ATOM     25  H   BC6 d          40.887  -9.148  40.688  0.00  0.00     0.038 H 
ATOM     26  H   BC6 d          42.137  -8.878  39.485  0.00  0.00     0.038 H 
ATOM     27  H   BC6 d          40.883 -10.686  38.659  0.00  0.00     0.034 H 
ATOM     28  H   BC6 d          40.567  -9.287  37.650  0.00  0.00     0.034 H 
ATOM     29  H   BC6 d          38.316  -9.025  38.899  0.00  0.00     0.043 H 
ATOM     30  H   BC6 d          39.922  -3.611  39.171  0.00  0.00     0.169 HD
ATOM     31  H   BC6 d          38.761  -3.894  37.156  0.00  0.00     0.091 H 
ATOM     32  H   BC6 d          41.009  -5.269  33.900  0.00  0.00     0.088 H 
ATOM     33  H   BC6 d          42.605  -5.478  37.797  0.00  0.00     0.087 H 
ATOM     34  H   BC6 d          44.097  -5.611  35.698  0.00  0.00     0.040 H 
ATOM     35  H   BC6 d          43.326  -5.816  34.155  0.00  0.00     0.040 H 
ATOM     36  H   BC6 d          44.297  -7.901  34.803  0.00  0.00     0.040 H 
ATOM     37  H   BC6 d          42.206  -7.985  33.545  0.00  0.00     0.037 H 
ATOM     38  H   BC6 d          41.259  -8.045  35.029  0.00  0.00     0.037 H 
ATOM     39  H   BC6 d          41.946 -10.249  35.543  0.00  0.00     0.087 H 
ATOM     40  H   BC6 d          41.290 -11.620  33.573  0.00  0.00     0.087 H 
ATOM     41  H   BC6 d          39.517  -9.156  33.791  0.00  0.00     0.049 H 
ATOM     42  H   BC6 d          39.564 -11.585  35.483  0.00  0.00     0.078 H 
ATOM     43  H   BC6 d          38.745 -11.689  37.526  0.00  0.00     0.092 H 
ENDROOT
BRANCH  23  44
ATOM     44  O   BC6 d          36.854 -11.090  37.554  0.00  0.00    -0.305 OA
BRANCH  44  45
ATOM     45  C   BC6 d          35.775 -10.638  38.237  0.00  0.00     0.289 C 
ATOM     46  O   BC6 d          35.850  -9.631  39.126  0.00  0.00    -0.144 OA
ATOM     47  N   BC6 d          34.590 -11.235  38.031  0.00  0.00    -0.357 N 
ATOM     48  H   BC6 d          33.787 -10.935  38.498  0.00  0.00     0.160 HD
ATOM     49  H   BC6 d          34.526 -11.979  37.404  0.00  0.00     0.160 HD
ENDBRANCH  44  45
ENDBRANCH  23  44
BRANCH   7  50
ATOM     50  C   BC6 d          38.540 -10.803  40.081  0.00  0.00    -0.070 C 
ATOM     51  H   BC6 d          37.473 -11.015  40.162  0.00  0.00     0.028 H 
ATOM     52  H   BC6 d          38.832 -10.237  40.967  0.00  0.00     0.028 H 
ATOM     53  H   BC6 d          39.092 -11.751  40.072  0.00  0.00     0.028 H 
ENDBRANCH   7  50
BRANCH  22  54
ATOM     54  C   BC6 d          37.875  -8.724  36.019  0.00  0.00    -0.052 C 
ATOM     55  H   BC6 d          37.989  -8.296  35.026  0.00  0.00     0.033 H 
ATOM     56  H   BC6 d          38.291  -8.003  36.726  0.00  0.00     0.033 H 
ATOM     57  H   BC6 d          36.800  -8.796  36.191  0.00  0.00     0.033 H 
ENDBRANCH  22  54
BRANCH  20  58
ATOM     58  C   BC6 d          38.673 -10.911  32.898  0.00  0.00    -0.067 C 
ATOM     59  H   BC6 d          37.635 -10.669  33.136  0.00  0.00     0.028 H 
ATOM     60  H   BC6 d          38.790 -11.999  32.916  0.00  0.00     0.028 H 
ATOM     61  H   BC6 d          38.864 -10.560  31.881  0.00  0.00     0.028 H 
ENDBRANCH  20  58
BRANCH  19  62
ATOM     62  O   BC6 d          41.407 -10.060  32.249  0.00  0.00    -0.392 OA
ATOM     63  H   BC6 d          41.161 -10.804  31.650  0.00  0.00     0.210 HD
ENDBRANCH  19  62
BRANCH   3  64
ATOM     64  C   BC6 d          42.507  -6.473  41.046  0.00  0.00    -0.046 C 
ATOM     65  H   BC6 d          42.886  -7.489  41.128  0.00  0.00     0.033 H 
ATOM     66  H   BC6 d          42.292  -6.133  42.063  0.00  0.00     0.033 H 
ATOM     67  H   BC6 d          43.312  -5.856  40.639  0.00  0.00     0.033 H 
ENDBRANCH   3  64
BRANCH  18  68
ATOM     68  O   BC6 d          43.540 -10.472  34.358  0.00  0.00    -0.388 OA
BRANCH  68  69
ATOM     69  C   BC6 d          44.241 -10.344  33.114  0.00  0.00     0.005 C 
ATOM     70  H   BC6 d          45.278 -10.653  33.275  0.00  0.00     0.066 H 
ATOM     71  H   BC6 d          44.244  -9.315  32.748  0.00  0.00     0.066 H 
ATOM     72  H   BC6 d          43.808 -11.000  32.357  0.00  0.00     0.066 H 
ENDBRANCH  68  69
ENDBRANCH  18  68
BRANCH  16  73
ATOM     73  C   BC6 d          43.547  -8.118  36.788  0.00  0.00    -0.073 C 
ATOM     74  H   BC6 d          43.810  -9.174  36.822  0.00  0.00     0.028 H 
ATOM     75  H   BC6 d          42.622  -7.972  37.335  0.00  0.00     0.028 H 
ATOM     76  H   BC6 d          44.340  -7.558  37.284  0.00  0.00     0.028 H 
ENDBRANCH  16  73
BRANCH  11  77
ATOM     77  O   BC6 d          38.744  -4.158  34.585  0.00  0.00    -0.361 OA
ATOM     78  H   BC6 d          39.179  -3.790  33.786  0.00  0.00     0.217 HD
ENDBRANCH  11  77
TORSDOF 11
