REMARK  11 active torsions:
REMARK  status: ('A' for Active; 'I' for Inactive)
REMARK    1  A    between atoms: C20_3  and  C36_4 
REMARK    2  A    between atoms: C16_8  and  C35_9 
REMARK    3  A    between atoms: C5_13  and  O36_14 
REMARK    4  A    between atoms: C8_19  and  C25_20 
REMARK    5  A    between atoms: C10_22  and  O26_23 
REMARK    6  A    between atoms: O26_23  and  C27_24 
REMARK    7  A    between atoms: C11_25  and  O28_26 
REMARK    8  A    between atoms: C12_27  and  C29_28 
REMARK    9  A    between atoms: C14_30  and  C30_31 
REMARK   10  A    between atoms: C15_32  and  O31_33 
REMARK   11  A    between atoms: O31_33  and  C32_34 
REMARK       I    between atoms: C32_34  and  N34_36 
ROOT
ATOM      1  O37 BC6 d          40.454  -4.546  41.387  0.00  0.00    -0.268 OA
ATOM      2  C21 BC6 d          40.707  -5.148  40.347  0.00  0.00     0.251 C 
ATOM      3  C20 BC6 d          41.331  -6.454  40.496  0.00  0.00     0.002 C 
ATOM      4  C19 BC6 d          40.717  -7.551  39.958  0.00  0.00    -0.092 C 
ATOM      5  C18 BC6 d          41.175  -8.973  40.011  0.00  0.00    -0.049 C 
ATOM      6  C17 BC6 d          40.693  -9.640  38.720  0.00  0.00    -0.057 C 
ATOM      7  C16 BC6 d          39.211 -10.009  38.700  0.00  0.00    -0.028 C 
ATOM      8  N22 BC6 d          40.408  -4.571  39.172  0.00  0.00    -0.323 N 
ATOM      9  C3  BC6 d          40.883  -4.943  37.937  0.00  0.00     0.038 A 
ATOM     10  C4  BC6 d          40.004  -4.913  36.868  0.00  0.00    -0.025 A 
ATOM     11  C5  BC6 d          40.416  -5.272  35.583  0.00  0.00     0.068 A 
ATOM     12  C6  BC6 d          41.726  -5.679  35.345  0.00  0.00    -0.045 A 
ATOM     13  C1  BC6 d          42.628  -5.726  36.430  0.00  0.00    -0.053 A 
ATOM     14  C2  BC6 d          42.202  -5.336  37.705  0.00  0.00    -0.051 A 
ATOM     15  C7  BC6 d          44.059  -6.194  36.262  0.00  0.00    -0.038 C 
ATOM     16  C8  BC6 d          44.215  -7.732  36.369  0.00  0.00    -0.051 C 
ATOM     17  C9  BC6 d          43.372  -8.470  35.289  0.00  0.00    -0.035 C 
ATOM     18  C10 BC6 d          43.381  -9.994  35.335  0.00  0.00     0.063 C 
ATOM     19  C11 BC6 d          42.590 -10.616  34.183  0.00  0.00     0.067 C 
ATOM     20  C12 BC6 d          41.125 -10.167  34.192  0.00  0.00    -0.014 C 
ATOM     21  C13 BC6 d          40.407 -10.644  35.451  0.00  0.00    -0.092 C 
ATOM     22  C14 BC6 d          39.442  -9.990  36.160  0.00  0.00    -0.058 C 
ATOM     23  C15 BC6 d          38.858 -10.703  37.359  0.00  0.00     0.074 C 
ATOM     24  H4  BC6 d          39.784  -7.367  39.428  0.00  0.00     0.077 H 
ATOM     25  H5  BC6 d          40.739  -9.480  40.885  0.00  0.00     0.038 H 
ATOM     26  H6  BC6 d          42.273  -9.016  40.073  0.00  0.00     0.038 H 
ATOM     27  H7  BC6 d          41.275 -10.560  38.572  0.00  0.00     0.034 H 
ATOM     28  H8  BC6 d          40.883  -8.948  37.887  0.00  0.00     0.034 H 
ATOM     29  H9  BC6 d          38.630  -9.078  38.771  0.00  0.00     0.043 H 
ATOM     30  H13 BC6 d          39.778  -3.796  39.198  0.00  0.00     0.169 HD
ATOM     31  H14 BC6 d          38.977  -4.604  37.032  0.00  0.00     0.091 H 
ATOM     32  H16 BC6 d          42.047  -5.954  34.347  0.00  0.00     0.088 H 
ATOM     33  H17 BC6 d          42.909  -5.340  38.527  0.00  0.00     0.087 H 
ATOM     34  H18 BC6 d          44.674  -5.725  37.044  0.00  0.00     0.040 H 
ATOM     35  H19 BC6 d          44.418  -5.875  35.272  0.00  0.00     0.040 H 
ATOM     36  H20 BC6 d          45.270  -7.952  36.152  0.00  0.00     0.040 H 
ATOM     37  H24 BC6 d          43.752  -8.164  34.304  0.00  0.00     0.037 H 
ATOM     38  H25 BC6 d          42.329  -8.140  35.399  0.00  0.00     0.037 H 
ATOM     39  H26 BC6 d          42.929 -10.313  36.286  0.00  0.00     0.087 H 
ATOM     40  H30 BC6 d          42.623 -11.713  34.260  0.00  0.00     0.087 H 
ATOM     41  H32 BC6 d          41.060  -9.073  34.098  0.00  0.00     0.049 H 
ATOM     42  H36 BC6 d          40.700 -11.623  35.828  0.00  0.00     0.078 H 
ATOM     43  H40 BC6 d          39.211 -11.745  37.375  0.00  0.00     0.092 H 
ENDROOT
BRANCH  23  44
ATOM     44  O31 BC6 d          37.444 -10.651  37.242  0.00  0.00    -0.294 OA
BRANCH  44  45
ATOM     45  C32 BC6 d          36.783 -11.817  36.727  0.00  0.00     0.358 C 
ATOM     46  O33 BC6 d          35.564 -11.829  36.692  0.00  0.00    -0.239 OA
ATOM     47  N34 BC6 d          37.604 -12.776  36.328  0.00  0.00    -0.346 N 
ATOM     48  H41 BC6 d          37.235 -13.629  35.959  0.00  0.00     0.161 HD
ATOM     49  H42 BC6 d          38.593 -12.647  36.396  0.00  0.00     0.161 HD
ENDBRANCH  44  45
ENDBRANCH  23  44
BRANCH   7  50
ATOM     50  C35 BC6 d          38.818 -10.903  39.888  0.00  0.00    -0.070 C 
ATOM     51  H10 BC6 d          39.026 -10.374  40.830  0.00  0.00     0.028 H 
ATOM     52  H11 BC6 d          39.402 -11.834  39.854  0.00  0.00     0.028 H 
ATOM     53  H12 BC6 d          37.746 -11.140  39.828  0.00  0.00     0.028 H 
ENDBRANCH   7  50
BRANCH  22  54
ATOM     54  C30 BC6 d          38.907  -8.632  35.783  0.00  0.00    -0.052 C 
ATOM     55  H37 BC6 d          39.467  -8.244  34.919  0.00  0.00     0.033 H 
ATOM     56  H38 BC6 d          39.022  -7.943  36.633  0.00  0.00     0.033 H 
ATOM     57  H39 BC6 d          37.842  -8.717  35.522  0.00  0.00     0.033 H 
ENDBRANCH  22  54
BRANCH  20  58
ATOM     58  C29 BC6 d          40.423 -10.872  33.036  0.00  0.00    -0.067 C 
ATOM     59  H33 BC6 d          40.492 -11.961  33.176  0.00  0.00     0.028 H 
ATOM     60  H34 BC6 d          40.905 -10.592  32.088  0.00  0.00     0.028 H 
ATOM     61  H35 BC6 d          39.365 -10.572  33.012  0.00  0.00     0.028 H 
ENDBRANCH  20  58
BRANCH  19  62
ATOM     62  O28 BC6 d          43.250 -10.190  32.971  0.00  0.00    -0.392 OA
ATOM     63  H31 BC6 d          44.188 -10.310  33.063  0.00  0.00     0.210 HD
ENDBRANCH  19  62
BRANCH   3  64
ATOM     64  C36 BC6 d          42.588  -6.520  41.313  0.00  0.00    -0.046 C 
ATOM     65  H1  BC6 d          42.987  -7.545  41.291  0.00  0.00     0.033 H 
ATOM     66  H2  BC6 d          42.365  -6.236  42.352  0.00  0.00     0.033 H 
ATOM     67  H3  BC6 d          43.334  -5.827  40.895  0.00  0.00     0.033 H 
ENDBRANCH   3  64
BRANCH  18  68
ATOM     68  O26 BC6 d          44.734 -10.493  35.264  0.00  0.00    -0.388 OA
BRANCH  68  69
ATOM     69  C27 BC6 d          44.929 -11.729  35.916  0.00  0.00     0.005 C 
ATOM     70  H27 BC6 d          44.280 -12.490  35.460  0.00  0.00     0.066 H 
ATOM     71  H28 BC6 d          44.680 -11.624  36.981  0.00  0.00     0.066 H 
ATOM     72  H29 BC6 d          45.981 -12.034  35.814  0.00  0.00     0.066 H 
ENDBRANCH  68  69
ENDBRANCH  18  68
BRANCH  16  73
ATOM     73  C25 BC6 d          43.937  -8.283  37.779  0.00  0.00    -0.073 C 
ATOM     74  H21 BC6 d          42.907  -8.036  38.073  0.00  0.00     0.028 H 
ATOM     75  H22 BC6 d          44.641  -7.833  38.494  0.00  0.00     0.028 H 
ATOM     76  H23 BC6 d          44.067  -9.376  37.778  0.00  0.00     0.028 H 
ENDBRANCH  16  73
BRANCH  11  77
ATOM     77  O36 BC6 d          39.478  -5.265  34.589  0.00  0.00    -0.361 OA
ATOM     78  H15 BC6 d          38.639  -5.000  34.948  0.00  0.00     0.217 HD
ENDBRANCH  11  77
TORSDOF 11
