REMARK  8 active torsions:
REMARK  status: ('A' for Active; 'I' for Inactive)
REMARK    1  A    between atoms: CAU_21  and  OAD_4 
REMARK    2  A    between atoms: CAV_22  and  OAE_5 
REMARK    3  A    between atoms: CAW_23  and  OAF_6 
REMARK    4  A    between atoms: CAH_8  and  CAG_7 
REMARK    5  A    between atoms: CAG_7  and  CAQ_17 
REMARK    6  A    between atoms: CAS_19  and  CAH_8 
REMARK       I    between atoms: CAQ_17  and  NAP_16 
REMARK    7  A    between atoms: NAP_16  and  CAT_20 
REMARK    8  A    between atoms: CAW_23  and  CAR_18 
ROOT
ATOM      1  CAH RJP d          29.714  25.795  -1.508  0.00  0.00    -0.034 C 
ATOM      2  H6  RJP d          29.808  26.741  -0.955  0.00  0.00     0.040 H 
ATOM      3  H7  RJP d          30.603  25.650  -2.140  0.00  0.00     0.040 H 
ENDROOT
BRANCH   1   4
ATOM      4  CAG RJP d          28.524  25.913  -2.416  0.00  0.00     0.013 C 
ATOM      5  H4  RJP d          27.619  26.076  -1.812  0.00  0.00     0.047 H 
ATOM      6  H5  RJP d          28.415  24.985  -2.998  0.00  0.00     0.047 H 
BRANCH   4   7
ATOM      7  CAQ RJP d          28.707  27.055  -3.344  0.00  0.00     0.222 C 
ATOM      8  OAA RJP d          29.259  26.875  -4.436  0.00  0.00    -0.273 OA
ATOM      9  NAP RJP d          28.329  28.198  -2.735  0.00  0.00    -0.327 N 
ATOM     10  H16 RJP d          27.893  28.101  -1.840  0.00  0.00     0.169 HD
BRANCH   9  11
ATOM     11  CAT RJP d          28.474  29.478  -3.207  0.00  0.00     0.034 A 
ATOM     12  CAM RJP d          27.707  29.925  -4.300  0.00  0.00    -0.057 A 
ATOM     13  CAK RJP d          27.873  31.232  -4.782  0.00  0.00    -0.081 A 
ATOM     14  H12 RJP d          26.989  29.261  -4.768  0.00  0.00     0.086 H 
ATOM     15  CAJ RJP d          28.789  32.054  -4.117  0.00  0.00    -0.083 A 
ATOM     16  H10 RJP d          27.312  31.592  -5.637  0.00  0.00     0.083 H 
ATOM     17  CAL RJP d          29.542  31.605  -3.008  0.00  0.00    -0.081 A 
ATOM     18  H9  RJP d          28.926  33.072  -4.465  0.00  0.00     0.083 H 
ATOM     19  CAN RJP d          29.394  30.294  -2.537  0.00  0.00    -0.057 A 
ATOM     20  H11 RJP d          30.237  32.279  -2.520  0.00  0.00     0.083 H 
ATOM     21  H13 RJP d          29.966  29.929  -1.692  0.00  0.00     0.086 H 
ENDBRANCH   9  11
ENDBRANCH   4   7
ENDBRANCH   1   4
BRANCH   1  22
ATOM     22  CAS RJP d          29.683  24.663  -0.489  0.00  0.00    -0.049 C 
ATOM     23  CAI RJP d          28.639  23.796  -0.391  0.00  0.00    -0.055 C 
ATOM     24  CAW RJP d          28.630  22.679   0.652  0.00  0.00     0.166 C 
ATOM     25  H8  RJP d          27.794  23.899  -1.070  0.00  0.00     0.082 H 
ATOM     26  CAO RJP d          30.065  22.260   1.076  0.00  0.00     0.003 C 
ATOM     27  CAU RJP d          30.862  23.539   1.452  0.00  0.00     0.067 C 
ATOM     28  H14 RJP d          30.012  21.587   1.945  0.00  0.00     0.042 H 
ATOM     29  H15 RJP d          30.562  21.743   0.242  0.00  0.00     0.042 H 
ATOM     30  CAV RJP d          30.716  24.644   0.395  0.00  0.00     0.082 C 
ATOM     31  H17 RJP d          30.371  23.939   2.351  0.00  0.00     0.087 H 
ATOM     32  H18 RJP d          31.417  24.168  -0.306  0.00  0.00     0.094 H 
BRANCH  24  33
ATOM     33  OAF RJP d          27.915  23.203   1.859  0.00  0.00    -0.375 OA
ATOM     34  H3  RJP d          27.891  22.530   2.528  0.00  0.00     0.211 HD
ENDBRANCH  24  33
BRANCH  24  35
ATOM     35  CAR RJP d          27.855  21.493   0.153  0.00  0.00     0.213 C 
ATOM     36  OAB RJP d          28.040  21.228  -1.064  0.00  0.00    -0.645 OA
ATOM     37  OAC RJP d          27.037  20.895   0.915  0.00  0.00    -0.645 OA
ENDBRANCH  24  35
BRANCH  27  38
ATOM     38  OAD RJP d          32.205  23.253   1.863  0.00  0.00    -0.393 OA
ATOM     39  H1  RJP d          32.737  24.036   1.772  0.00  0.00     0.210 HD
ENDBRANCH  27  38
BRANCH  30  40
ATOM     40  OAE RJP d          31.432  25.785   0.515  0.00  0.00    -0.389 OA
ATOM     41  H2  RJP d          31.677  25.909   1.425  0.00  0.00     0.210 HD
ENDBRANCH  30  40
ENDBRANCH   1  22
TORSDOF 8
