REMARK  8 active torsions:
REMARK  status: ('A' for Active; 'I' for Inactive)
REMARK    1  A    between atoms: CAU_21  and  OAD_4 
REMARK    2  A    between atoms: CAV_22  and  OAE_5 
REMARK    3  A    between atoms: CAW_23  and  OAF_6 
REMARK    4  A    between atoms: CAH_8  and  CAG_7 
REMARK    5  A    between atoms: CAG_7  and  CAQ_17 
REMARK    6  A    between atoms: CAS_19  and  CAH_8 
REMARK       I    between atoms: CAQ_17  and  NAP_16 
REMARK    7  A    between atoms: NAP_16  and  CAT_20 
REMARK    8  A    between atoms: CAW_23  and  CAR_18 
ROOT
ATOM      1  CAH RJP d          30.106  25.839  -1.349  0.00  0.00    -0.034 C 
ATOM      2  H6  RJP d          31.032  26.429  -1.300  0.00  0.00     0.040 H 
ATOM      3  H7  RJP d          30.106  25.233  -2.268  0.00  0.00     0.040 H 
ENDROOT
BRANCH   1   4
ATOM      4  CAG RJP d          28.956  26.801  -1.438  0.00  0.00     0.013 C 
ATOM      5  H4  RJP d          28.940  27.435  -0.539  0.00  0.00     0.047 H 
ATOM      6  H5  RJP d          28.014  26.238  -1.507  0.00  0.00     0.047 H 
BRANCH   4   7
ATOM      7  CAQ RJP d          29.105  27.657  -2.639  0.00  0.00     0.222 C 
ATOM      8  OAA RJP d          30.081  27.504  -3.384  0.00  0.00    -0.273 OA
ATOM      9  NAP RJP d          28.149  28.609  -2.639  0.00  0.00    -0.327 N 
ATOM     10  H16 RJP d          27.446  28.531  -1.931  0.00  0.00     0.169 HD
BRANCH   9  11
ATOM     11  CAT RJP d          28.032  29.670  -3.500  0.00  0.00     0.034 A 
ATOM     12  CAM RJP d          28.843  29.747  -4.649  0.00  0.00    -0.057 A 
ATOM     13  CAK RJP d          28.724  30.843  -5.516  0.00  0.00    -0.081 A 
ATOM     14  H12 RJP d          29.557  28.960  -4.864  0.00  0.00     0.086 H 
ATOM     15  CAJ RJP d          27.763  31.811  -5.206  0.00  0.00    -0.083 A 
ATOM     16  H10 RJP d          29.354  30.937  -6.394  0.00  0.00     0.083 H 
ATOM     17  CAL RJP d          26.939  31.718  -4.061  0.00  0.00    -0.081 A 
ATOM     18  H9  RJP d          27.646  32.662  -5.867  0.00  0.00     0.083 H 
ATOM     19  CAN RJP d          27.069  30.636  -3.182  0.00  0.00    -0.057 A 
ATOM     20  H11 RJP d          26.203  32.490  -3.862  0.00  0.00     0.083 H 
ATOM     21  H13 RJP d          26.451  30.549  -2.295  0.00  0.00     0.086 H 
ENDBRANCH   9  11
ENDBRANCH   4   7
ENDBRANCH   1   4
BRANCH   1  22
ATOM     22  CAS RJP d          30.103  24.882  -0.164  0.00  0.00    -0.049 C 
ATOM     23  CAI RJP d          31.106  24.854   0.756  0.00  0.00    -0.055 C 
ATOM     24  CAW RJP d          31.082  23.873   1.926  0.00  0.00     0.166 C 
ATOM     25  H8  RJP d          31.942  25.545   0.655  0.00  0.00     0.082 H 
ATOM     26  CAO RJP d          29.637  23.441   2.301  0.00  0.00     0.003 C 
ATOM     27  CAU RJP d          28.908  22.980   1.009  0.00  0.00     0.067 C 
ATOM     28  H14 RJP d          29.674  22.611   3.022  0.00  0.00     0.042 H 
ATOM     29  H15 RJP d          29.100  24.290   2.748  0.00  0.00     0.042 H 
ATOM     30  CAV RJP d          29.087  23.979  -0.144  0.00  0.00     0.082 C 
ATOM     31  H17 RJP d          29.435  22.072   0.682  0.00  0.00     0.087 H 
ATOM     32  H18 RJP d          28.351  24.689   0.259  0.00  0.00     0.094 H 
BRANCH  24  33
ATOM     33  OAF RJP d          31.844  22.656   1.503  0.00  0.00    -0.375 OA
ATOM     34  H3  RJP d          31.848  22.024   2.212  0.00  0.00     0.211 HD
ENDBRANCH  24  33
BRANCH  24  35
ATOM     35  CAR RJP d          31.789  24.451   3.119  0.00  0.00     0.213 C 
ATOM     36  OAB RJP d          31.569  25.677   3.307  0.00  0.00    -0.645 OA
ATOM     37  OAC RJP d          32.593  23.741   3.794  0.00  0.00    -0.645 OA
ENDBRANCH  24  35
BRANCH  27  38
ATOM     38  OAD RJP d          27.562  22.556   1.253  0.00  0.00    -0.393 OA
ATOM     39  H1  RJP d          27.067  22.593   0.443  0.00  0.00     0.210 HD
ENDBRANCH  27  38
BRANCH  30  40
ATOM     40  OAE RJP d          28.429  23.782  -1.309  0.00  0.00    -0.389 OA
ATOM     41  H2  RJP d          28.207  22.863  -1.395  0.00  0.00     0.210 HD
ENDBRANCH  30  40
ENDBRANCH   1  22
TORSDOF 8
