REMARK  8 active torsions:
REMARK  status: ('A' for Active; 'I' for Inactive)
REMARK    1  A    between atoms: C2_2  and  C6_6 
REMARK    2  A    between atoms: C8_7  and  C3_3 
REMARK    3  A    between atoms: C4_4  and  C5_5 
REMARK    4  A    between atoms: C11_15  and  C14_9 
REMARK    5  A    between atoms: N29_23  and  C30_24 
REMARK    6  A    between atoms: C30_24  and  C31_25 
REMARK    7  A    between atoms: C30_24  and  C32_26 
REMARK    8  A    between atoms: C30_24  and  C33_27 
ROOT
ATOM      1  C14 MOL d          13.587  -4.342 -11.487  0.00  0.00     0.089 A 
ATOM      2  C16 MOL d          15.227  -2.909 -11.854  0.00  0.00     0.131 A 
ATOM      3  C18 MOL d          14.114  -3.784 -10.228  0.00  0.00     0.138 A 
ATOM      4  N2  MOL d          14.347  -3.767 -12.435  0.00  0.00    -0.337 N 
ATOM      5  N3  MOL d          15.084  -2.915 -10.506  0.00  0.00    -0.290 N 
ATOM      6  C25 MOL d          16.188  -2.101 -12.454  0.00  0.00     0.045 A 
ATOM      7  N26 MOL d          16.960  -1.316 -11.694  0.00  0.00    -0.268 NA
ATOM      8  C27 MOL d          16.810  -1.328 -10.363  0.00  0.00     0.017 A 
ATOM      9  C28 MOL d          15.863  -2.132  -9.750  0.00  0.00     0.005 A 
ATOM     10  N29 MOL d          13.641  -4.055  -8.976  0.00  0.00    -0.366 N 
ATOM     11  H   MOL d          16.311  -2.107 -13.531  0.00  0.00     0.120 H 
ATOM     12  H   MOL d          17.444  -0.695  -9.752  0.00  0.00     0.116 H 
ATOM     13  H   MOL d          15.755  -2.127  -8.672  0.00  0.00     0.114 H 
ATOM     14  H   MOL d          12.847  -4.704  -8.879  0.00  0.00     0.162 HD
ATOM     15  H1  MOL d          14.274  -3.949 -13.447  0.00  0.00     0.167 HD
ENDROOT
BRANCH   1  16
ATOM     16  C11 MOL d          12.592  -5.402 -11.752  0.00  0.00    -0.005 A 
ATOM     17  C10 MOL d          12.652  -6.593 -11.034  0.00  0.00    -0.070 A 
ATOM     18  C9  MOL d          11.766  -7.615 -11.329  0.00  0.00    -0.071 A 
ATOM     19  H   MOL d          13.388  -6.719 -10.249  0.00  0.00     0.084 H 
ATOM     20  C8  MOL d          10.857  -7.452 -12.373  0.00  0.00    -0.021 A 
ATOM     21  H   MOL d          11.779  -8.533 -10.754  0.00  0.00     0.084 H 
ATOM     22  C13 MOL d          10.837  -6.289 -13.123  0.00  0.00    -0.071 A 
ATOM     23  C12 MOL d          11.722  -5.257 -12.822  0.00  0.00    -0.070 A 
ATOM     24  H   MOL d          10.135  -6.182 -13.942  0.00  0.00     0.084 H 
ATOM     25  H   MOL d          11.730  -4.351 -13.416  0.00  0.00     0.084 H 
BRANCH  20  26
ATOM     26  C3  MOL d           9.919  -8.558 -12.673  0.00  0.00     0.032 A 
ATOM     27  C2  MOL d           9.309  -8.825 -13.974  0.00  0.00     0.088 A 
ATOM     28  O1  MOL d           8.548  -9.934 -13.818  0.00  0.00    -0.217 OA
ATOM     29  N1  MOL d           8.596 -10.434 -12.561  0.00  0.00    -0.133 NA
ATOM     30  C4  MOL d           9.428  -9.655 -11.802  0.00  0.00     0.071 A 
BRANCH  27  31
ATOM     31  C6  MOL d           9.338  -8.130 -15.302  0.00  0.00    -0.028 C 
ATOM     32  H   MOL d           8.687  -8.663 -16.010  0.00  0.00     0.036 H 
ATOM     33  H   MOL d          10.368  -8.119 -15.688  0.00  0.00     0.036 H 
ATOM     34  H   MOL d           8.981  -7.096 -15.182  0.00  0.00     0.036 H 
ENDBRANCH  27  31
BRANCH  30  35
ATOM     35  C5  MOL d           9.778  -9.846 -10.355  0.00  0.00    -0.033 C 
ATOM     36  H   MOL d          10.458  -9.043 -10.034  0.00  0.00     0.035 H 
ATOM     37  H   MOL d          10.272 -10.820 -10.222  0.00  0.00     0.035 H 
ATOM     38  H   MOL d           8.861  -9.814  -9.748  0.00  0.00     0.035 H 
ENDBRANCH  30  35
ENDBRANCH  20  26
ENDBRANCH   1  16
BRANCH  10  39
ATOM     39  C30 MOL d          14.215  -3.463  -7.768  0.00  0.00     0.021 C 
BRANCH  39  40
ATOM     40  C31 MOL d          14.519  -1.986  -8.019  0.00  0.00    -0.054 C 
ATOM     41  H   MOL d          13.588  -1.460  -8.279  0.00  0.00     0.030 H 
ATOM     42  H   MOL d          15.235  -1.894  -8.849  0.00  0.00     0.030 H 
ATOM     43  H   MOL d          14.950  -1.541  -7.110  0.00  0.00     0.030 H 
ENDBRANCH  39  40
BRANCH  39  44
ATOM     44  C32 MOL d          13.262  -3.573  -6.583  0.00  0.00    -0.054 C 
ATOM     45  H   MOL d          13.047  -4.633  -6.382  0.00  0.00     0.030 H 
ATOM     46  H   MOL d          12.324  -3.046  -6.816  0.00  0.00     0.030 H 
ATOM     47  H   MOL d          13.726  -3.118  -5.695  0.00  0.00     0.030 H 
ENDBRANCH  39  44
BRANCH  39  48
ATOM     48  C33 MOL d          15.508  -4.172  -7.376  0.00  0.00    -0.054 C 
ATOM     49  H   MOL d          16.237  -4.083  -8.194  0.00  0.00     0.030 H 
ATOM     50  H   MOL d          15.299  -5.235  -7.184  0.00  0.00     0.030 H 
ATOM     51  H   MOL d          15.919  -3.709  -6.467  0.00  0.00     0.030 H 
ENDBRANCH  39  48
ENDBRANCH  10  39
TORSDOF 8
