REMARK  1 active torsions:
REMARK  status: ('A' for Active; 'I' for Inactive)
REMARK    1  A    between atoms: C_17  and  C_18 
ROOT
ATOM      1  C   HUB d           0.118  65.546  69.946  0.00  0.00     0.245 A 
ATOM      2  O   HUB d          -0.245  64.689  70.738  0.00  0.00    -0.268 OA
ATOM      3  N   HUB d          -0.417  65.581  68.729  0.00  0.00    -0.327 N 
ATOM      4  C   HUB d           1.069  66.459  70.278  0.00  0.00    -0.017 A 
ATOM      5  C   HUB d           1.422  67.402  69.382  0.00  0.00    -0.067 A 
ATOM      6  C   HUB d           0.812  67.500  68.142  0.00  0.00     0.001 A 
ATOM      7  C   HUB d          -0.087  66.525  67.815  0.00  0.00     0.021 A 
ATOM      8  C   HUB d          -0.779  66.464  66.533  0.00  0.00    -0.019 C 
ATOM      9  C   HUB d          -0.316  67.525  65.484  0.00  0.00    -0.026 C 
ATOM     10  C   HUB d           0.869  67.041  64.769  0.00  0.00    -0.096 C 
ATOM     11  C   HUB d          -0.793  70.867  67.603  0.00  0.00    -0.042 C 
ATOM     12  C   HUB d          -1.230  69.582  66.860  0.00  0.00    -0.057 C 
ATOM     13  C   HUB d          -0.010  68.887  66.182  0.00  0.00    -0.010 C 
ATOM     14  C   HUB d           1.161  68.597  67.190  0.00  0.00     0.162 C 
ATOM     15  N   HUB d           1.497  69.893  67.866  0.00  0.00    -0.061 N 
ATOM     16  C   HUB d           2.408  68.161  66.331  0.00  0.00    -0.009 C 
ATOM     17  C   HUB d           2.135  67.295  65.171  0.00  0.00    -0.084 C 
ATOM     18  C   HUB d           0.391  70.592  68.560  0.00  0.00     0.083 C 
ATOM     19  H   HUB d          -1.077  64.910  68.491  0.00  0.00     0.169 HD
ATOM     20  H   HUB d           1.521  66.420  71.158  0.00  0.00     0.092 H 
ATOM     21  H   HUB d           2.153  68.027  69.632  0.00  0.00     0.084 H 
ATOM     22  H   HUB d          -1.848  66.601  66.721  0.00  0.00     0.043 H 
ATOM     23  H   HUB d          -0.658  65.456  66.116  0.00  0.00     0.043 H 
ATOM     24  H   HUB d          -1.115  67.676  64.752  0.00  0.00     0.047 H 
ATOM     25  H   HUB d           0.714  66.467  63.970  0.00  0.00     0.077 H 
ATOM     26  H   HUB d          -1.634  71.273  68.167  0.00  0.00     0.035 H 
ATOM     27  H   HUB d          -0.492  71.618  66.871  0.00  0.00     0.035 H 
ATOM     28  H   HUB d          -1.710  68.915  67.578  0.00  0.00     0.033 H 
ATOM     29  H   HUB d          -1.970  69.841  66.098  0.00  0.00     0.033 H 
ATOM     30  H   HUB d           0.345  69.585  65.415  0.00  0.00     0.045 H 
ATOM     31  H   HUB d           1.854  70.533  67.152  0.00  0.00     0.278 HD
ATOM     32  H   HUB d           2.250  69.735  68.538  0.00  0.00     0.278 HD
ATOM     33  H   HUB d           3.137  67.666  66.975  0.00  0.00     0.043 H 
ATOM     34  H   HUB d           2.896  69.058  65.940  0.00  0.00     0.043 H 
ATOM     35  H   HUB d           0.051  70.000  69.409  0.00  0.00     0.075 H 
ATOM     36  H   HUB d           0.772  71.538  68.945  0.00  0.00     0.075 H 
ENDROOT
BRANCH  17  37
ATOM     37  C   HUB d           3.277  66.807  64.406  0.00  0.00    -0.055 C 
ATOM     38  H   HUB d           2.989  66.213  63.536  0.00  0.00     0.033 H 
ATOM     39  H   HUB d           3.906  66.184  65.043  0.00  0.00     0.033 H 
ATOM     40  H   HUB d           3.869  67.652  64.048  0.00  0.00     0.033 H 
ENDBRANCH  17  37
TORSDOF 1
