REMARK  3 active torsions:
REMARK  status: ('A' for Active; 'I' for Inactive)
REMARK    1  A    between atoms: C_2  and  O_3 
REMARK    2  A    between atoms: C_9  and  C_15 
REMARK    3  A    between atoms: C_18  and  O_19 
ROOT
ATOM      1  C   WST d          14.303  49.946  60.854  0.00  0.00     0.013 A 
ATOM      2  C   WST d          15.479  49.319  61.349  0.00  0.00     0.075 A 
ATOM      3  C   WST d          15.681  49.204  62.738  0.00  0.00    -0.050 A 
ATOM      4  C   WST d          14.741  49.725  63.639  0.00  0.00    -0.078 A 
ATOM      5  C   WST d          13.603  50.386  63.160  0.00  0.00    -0.050 A 
ATOM      6  C   WST d          13.366  50.482  61.776  0.00  0.00     0.079 A 
ATOM      7  O   WST d          12.206  51.099  61.368  0.00  0.00    -0.340 OA
ATOM      8  C   WST d          11.613  50.566  60.169  0.00  0.00     0.074 C 
ATOM      9  C   WST d          12.639  50.638  58.989  0.00  0.00    -0.017 C 
ATOM     10  C   WST d          14.042  50.062  59.386  0.00  0.00    -0.017 C 
ATOM     11  C   WST d          15.093  50.985  58.702  0.00  0.00    -0.057 C 
ATOM     12  C   WST d          14.319  51.885  57.730  0.00  0.00    -0.064 C 
ATOM     13  C   WST d          12.959  52.043  58.425  0.00  0.00    -0.058 C 
ATOM     14  H   WST d          16.510  48.734  63.104  0.00  0.00     0.087 H 
ATOM     15  H   WST d          14.881  49.600  64.645  0.00  0.00     0.083 H 
ATOM     16  H   WST d          12.924  50.764  63.824  0.00  0.00     0.087 H 
ATOM     17  H   WST d          11.414  49.500  60.352  0.00  0.00     0.092 H 
ATOM     18  H   WST d          12.240  50.038  58.162  0.00  0.00     0.045 H 
ATOM     19  H   WST d          14.113  49.054  58.959  0.00  0.00     0.048 H 
ATOM     20  H   WST d          15.864  50.410  58.185  0.00  0.00     0.034 H 
ATOM     21  H   WST d          15.583  51.634  59.439  0.00  0.00     0.034 H 
ATOM     22  H   WST d          14.200  51.408  56.748  0.00  0.00     0.033 H 
ATOM     23  H   WST d          14.825  52.846  57.602  0.00  0.00     0.033 H 
ATOM     24  H   WST d          13.063  52.772  59.234  0.00  0.00     0.033 H 
ATOM     25  H   WST d          12.195  52.386  57.724  0.00  0.00     0.033 H 
ENDROOT
BRANCH   8  26
ATOM     26  C   WST d          10.295  51.229  59.892  0.00  0.00    -0.028 A 
ATOM     27  C   WST d           9.129  50.475  59.610  0.00  0.00    -0.072 A 
ATOM     28  C   WST d           7.911  51.106  59.314  0.00  0.00    -0.050 A 
ATOM     29  H   WST d           9.157  49.449  59.627  0.00  0.00     0.084 H 
ATOM     30  C   WST d           7.832  52.509  59.279  0.00  0.00     0.065 A 
ATOM     31  H   WST d           7.074  50.545  59.130  0.00  0.00     0.087 H 
ATOM     32  C   WST d           8.973  53.279  59.588  0.00  0.00    -0.050 A 
ATOM     33  C   WST d          10.182  52.642  59.926  0.00  0.00    -0.072 A 
ATOM     34  H   WST d           8.918  54.298  59.585  0.00  0.00     0.087 H 
ATOM     35  H   WST d          10.974  53.222  60.207  0.00  0.00     0.084 H 
BRANCH  30  36
ATOM     36  O   WST d           6.649  53.092  58.981  0.00  0.00    -0.361 OA
ATOM     37  H   WST d           6.832  54.055  58.929  0.00  0.00     0.217 HD
ENDBRANCH  30  36
ENDBRANCH   8  26
BRANCH   2  38
ATOM     38  O   WST d          16.433  48.836  60.516  0.00  0.00    -0.360 OA
ATOM     39  H   WST d          15.957  48.288  59.854  0.00  0.00     0.217 HD
ENDBRANCH   2  38
TORSDOF 3
