REMARK  3 active torsions:
REMARK  status: ('A' for Active; 'I' for Inactive)
REMARK    1  A    between atoms: C2_2  and  O3_3 
REMARK    2  A    between atoms: C9_9  and  C18_15 
REMARK    3  A    between atoms: C21_18  and  O22_19 
ROOT
ATOM      1  C1  WST d           9.050  51.614  59.290  0.00  0.00     0.013 A 
ATOM      2  C2  WST d           7.746  52.125  59.684  0.00  0.00     0.075 A 
ATOM      3  C4  WST d           7.694  53.539  59.945  0.00  0.00    -0.050 A 
ATOM      4  C5  WST d           8.824  54.405  59.841  0.00  0.00    -0.078 A 
ATOM      5  C6  WST d          10.076  53.879  59.461  0.00  0.00    -0.050 A 
ATOM      6  C7  WST d          10.189  52.499  59.189  0.00  0.00     0.079 A 
ATOM      7  O8  WST d          11.446  52.068  58.829  0.00  0.00    -0.340 OA
ATOM      8  C9  WST d          11.474  50.975  57.868  0.00  0.00     0.074 C 
ATOM      9  C11 WST d          10.631  49.741  58.353  0.00  0.00    -0.017 C 
ATOM     10  C13 WST d           9.254  50.121  58.976  0.00  0.00    -0.017 C 
ATOM     11  C15 WST d           9.110  49.220  60.225  0.00  0.00    -0.057 C 
ATOM     12  C16 WST d          10.127  48.113  60.040  0.00  0.00    -0.064 C 
ATOM     13  C17 WST d          11.297  48.832  59.403  0.00  0.00    -0.058 C 
ATOM     14  H2  WST d           6.744  53.972  60.238  0.00  0.00     0.087 H 
ATOM     15  H3  WST d           8.720  55.462  60.052  0.00  0.00     0.083 H 
ATOM     16  H4  WST d          10.941  54.527  59.379  0.00  0.00     0.087 H 
ATOM     17  H5  WST d          10.997  51.340  56.946  0.00  0.00     0.092 H 
ATOM     18  H6  WST d          10.444  49.133  57.456  0.00  0.00     0.045 H 
ATOM     19  H7  WST d           8.471  49.846  58.256  0.00  0.00     0.048 H 
ATOM     20  H8  WST d           8.093  48.802  60.283  0.00  0.00     0.034 H 
ATOM     21  H9  WST d           9.325  49.792  61.140  0.00  0.00     0.034 H 
ATOM     22  H10 WST d           9.738  47.325  59.379  0.00  0.00     0.033 H 
ATOM     23  H11 WST d          10.412  47.672  61.007  0.00  0.00     0.033 H 
ATOM     24  H12 WST d          11.845  49.427  60.147  0.00  0.00     0.033 H 
ATOM     25  H13 WST d          11.984  48.119  58.926  0.00  0.00     0.033 H 
ENDROOT
BRANCH   8  26
ATOM     26  C18 WST d          12.922  50.617  57.511  0.00  0.00    -0.028 A 
ATOM     27  C19 WST d          13.223  50.169  56.186  0.00  0.00    -0.072 A 
ATOM     28  C20 WST d          14.546  49.835  55.814  0.00  0.00    -0.050 A 
ATOM     29  H14 WST d          12.426  50.085  55.456  0.00  0.00     0.084 H 
ATOM     30  C21 WST d          15.654  49.919  56.719  0.00  0.00     0.065 A 
ATOM     31  H15 WST d          14.729  49.501  54.799  0.00  0.00     0.087 H 
ATOM     32  C23 WST d          15.325  50.370  58.042  0.00  0.00    -0.050 A 
ATOM     33  C24 WST d          13.998  50.715  58.443  0.00  0.00    -0.072 A 
ATOM     34  H17 WST d          16.121  50.453  58.772  0.00  0.00     0.087 H 
ATOM     35  H18 WST d          13.809  51.052  59.456  0.00  0.00     0.084 H 
BRANCH  30  36
ATOM     36  O22 WST d          16.838  49.619  56.370  0.00  0.00    -0.361 OA
ATOM     37  H16 WST d          16.840  49.349  55.460  0.00  0.00     0.217 HD
ENDBRANCH  30  36
ENDBRANCH   8  26
BRANCH   2  38
ATOM     38  O3  WST d           6.691  51.403  59.799  0.00  0.00    -0.360 OA
ATOM     39  H1  WST d           5.961  51.951  60.063  0.00  0.00     0.217 HD
ENDBRANCH   2  38
TORSDOF 3
