REMARK  3 active torsions:
REMARK  status: ('A' for Active; 'I' for Inactive)
REMARK    1  A    between atoms: C2_2  and  O3_3 
REMARK    2  A    between atoms: C9_9  and  C18_15 
REMARK    3  A    between atoms: C21_18  and  O22_19 
ROOT
ATOM      1  C1  WST d          15.459  50.933  59.052  0.00  0.00     0.013 A 
ATOM      2  C2  WST d          16.808  50.456  58.787  0.00  0.00     0.075 A 
ATOM      3  C4  WST d          16.970  49.722  57.561  0.00  0.00    -0.050 A 
ATOM      4  C5  WST d          15.903  49.458  56.650  0.00  0.00    -0.078 A 
ATOM      5  C6  WST d          14.605  49.929  56.936  0.00  0.00    -0.050 A 
ATOM      6  C7  WST d          14.384  50.658  58.124  0.00  0.00     0.079 A 
ATOM      7  O8  WST d          13.089  51.077  58.329  0.00  0.00    -0.340 OA
ATOM      8  C9  WST d          12.952  52.356  59.011  0.00  0.00     0.074 C 
ATOM      9  C11 WST d          13.718  52.377  60.383  0.00  0.00    -0.017 C 
ATOM     10  C13 WST d          15.137  51.736  60.325  0.00  0.00    -0.017 C 
ATOM     11  C15 WST d          15.253  50.889  61.615  0.00  0.00    -0.057 C 
ATOM     12  C16 WST d          14.154  51.393  62.526  0.00  0.00    -0.064 C 
ATOM     13  C17 WST d          13.020  51.676  61.563  0.00  0.00    -0.058 C 
ATOM     14  H2  WST d          17.957  49.349  57.314  0.00  0.00     0.087 H 
ATOM     15  H3  WST d          16.090  48.897  55.742  0.00  0.00     0.083 H 
ATOM     16  H4  WST d          13.788  49.734  56.252  0.00  0.00     0.087 H 
ATOM     17  H5  WST d          13.427  53.117  58.374  0.00  0.00     0.092 H 
ATOM     18  H6  WST d          13.833  53.439  60.647  0.00  0.00     0.045 H 
ATOM     19  H7  WST d          15.876  52.548  60.374  0.00  0.00     0.048 H 
ATOM     20  H8  WST d          16.238  51.035  62.083  0.00  0.00     0.034 H 
ATOM     21  H9  WST d          15.108  49.822  61.389  0.00  0.00     0.034 H 
ATOM     22  H10 WST d          14.464  52.308  63.052  0.00  0.00     0.033 H 
ATOM     23  H11 WST d          13.867  50.626  63.261  0.00  0.00     0.033 H 
ATOM     24  H12 WST d          12.539  50.742  61.237  0.00  0.00     0.033 H 
ATOM     25  H13 WST d          12.269  52.334  62.023  0.00  0.00     0.033 H 
ENDROOT
BRANCH   8  26
ATOM     26  C18 WST d          11.472  52.737  59.137  0.00  0.00    -0.028 A 
ATOM     27  C19 WST d          11.100  54.117  59.073  0.00  0.00    -0.072 A 
ATOM     28  C20 WST d           9.745  54.510  59.178  0.00  0.00    -0.050 A 
ATOM     29  H14 WST d          11.866  54.872  58.941  0.00  0.00     0.084 H 
ATOM     30  C21 WST d           8.674  53.574  59.354  0.00  0.00     0.065 A 
ATOM     31  H15 WST d           9.508  55.566  59.124  0.00  0.00     0.087 H 
ATOM     32  C23 WST d           9.075  52.197  59.416  0.00  0.00    -0.050 A 
ATOM     33  C24 WST d          10.435  51.773  59.311  0.00  0.00    -0.072 A 
ATOM     34  H17 WST d           8.309  51.442  59.550  0.00  0.00     0.087 H 
ATOM     35  H18 WST d          10.679  50.718  59.363  0.00  0.00     0.084 H 
BRANCH  30  36
ATOM     36  O22 WST d           7.462  53.941  59.445  0.00  0.00    -0.361 OA
ATOM     37  H16 WST d           7.412  54.887  59.377  0.00  0.00     0.217 HD
ENDBRANCH  30  36
ENDBRANCH   8  26
BRANCH   2  38
ATOM     38  O3  WST d          17.811  50.658  59.563  0.00  0.00    -0.360 OA
ATOM     39  H1  WST d          18.586  50.259  59.186  0.00  0.00     0.217 HD
ENDBRANCH   2  38
TORSDOF 3
