REMARK  3 active torsions:
REMARK  status: ('A' for Active; 'I' for Inactive)
REMARK    1  A    between atoms: C2_2  and  O3_3 
REMARK    2  A    between atoms: C9_9  and  C18_15 
REMARK    3  A    between atoms: C21_18  and  O22_19 
ROOT
ATOM      1  C1  WST d          14.191  50.393  57.874  0.00  0.00     0.013 A 
ATOM      2  C2  WST d          15.523  50.226  57.312  0.00  0.00     0.075 A 
ATOM      3  C4  WST d          15.584  49.467  56.092  0.00  0.00    -0.050 A 
ATOM      4  C5  WST d          14.440  48.899  55.455  0.00  0.00    -0.078 A 
ATOM      5  C6  WST d          13.163  49.074  56.025  0.00  0.00    -0.050 A 
ATOM      6  C7  WST d          13.038  49.811  57.222  0.00  0.00     0.079 A 
ATOM      7  O8  WST d          11.758  49.931  57.713  0.00  0.00    -0.340 OA
ATOM      8  C9  WST d          11.468  51.187  58.390  0.00  0.00     0.074 C 
ATOM      9  C11 WST d          12.488  51.481  59.549  0.00  0.00    -0.017 C 
ATOM     10  C13 WST d          13.972  51.185  59.175  0.00  0.00    -0.017 C 
ATOM     11  C15 WST d          14.571  50.480  60.415  0.00  0.00    -0.057 C 
ATOM     12  C16 WST d          13.610  50.776  61.547  0.00  0.00    -0.064 C 
ATOM     13  C17 WST d          12.258  50.720  60.867  0.00  0.00    -0.058 C 
ATOM     14  H2  WST d          16.554  49.317  55.630  0.00  0.00     0.087 H 
ATOM     15  H3  WST d          14.554  48.335  54.537  0.00  0.00     0.083 H 
ATOM     16  H4  WST d          12.287  48.647  55.550  0.00  0.00     0.087 H 
ATOM     17  H5  WST d          11.592  51.992  57.650  0.00  0.00     0.092 H 
ATOM     18  H6  WST d          12.398  52.555  59.764  0.00  0.00     0.045 H 
ATOM     19  H7  WST d          14.484  52.149  59.041  0.00  0.00     0.048 H 
ATOM     20  H8  WST d          15.569  50.883  60.642  0.00  0.00     0.034 H 
ATOM     21  H9  WST d          14.642  49.395  60.244  0.00  0.00     0.034 H 
ATOM     22  H10 WST d          13.796  51.772  61.975  0.00  0.00     0.033 H 
ATOM     23  H11 WST d          13.686  50.016  62.340  0.00  0.00     0.033 H 
ATOM     24  H12 WST d          11.958  49.679  60.673  0.00  0.00     0.033 H 
ATOM     25  H13 WST d          11.490  51.215  61.478  0.00  0.00     0.033 H 
ENDROOT
BRANCH   8  26
ATOM     26  C18 WST d          10.005  51.221  58.847  0.00  0.00    -0.028 A 
ATOM     27  C19 WST d           9.304  52.468  58.851  0.00  0.00    -0.072 A 
ATOM     28  C20 WST d           7.952  52.542  59.259  0.00  0.00    -0.050 A 
ATOM     29  H14 WST d           9.817  53.370  58.536  0.00  0.00     0.084 H 
ATOM     30  C21 WST d           7.205  51.396  59.690  0.00  0.00     0.065 A 
ATOM     31  H15 WST d           7.460  53.507  59.246  0.00  0.00     0.087 H 
ATOM     32  C23 WST d           7.933  50.158  59.678  0.00  0.00    -0.050 A 
ATOM     33  C24 WST d           9.297  50.056  59.269  0.00  0.00    -0.072 A 
ATOM     34  H17 WST d           7.421  49.257  59.995  0.00  0.00     0.087 H 
ATOM     35  H18 WST d           9.795  49.093  59.279  0.00  0.00     0.084 H 
BRANCH  30  36
ATOM     36  O22 WST d           5.991  51.476  60.052  0.00  0.00    -0.361 OA
ATOM     37  H16 WST d           5.700  52.378  59.984  0.00  0.00     0.217 HD
ENDBRANCH  30  36
ENDBRANCH   8  26
BRANCH   2  38
ATOM     38  O3  WST d          16.592  50.709  57.834  0.00  0.00    -0.360 OA
ATOM     39  H1  WST d          17.339  50.476  57.294  0.00  0.00     0.217 HD
ENDBRANCH   2  38
TORSDOF 3
