REMARK  3 active torsions:
REMARK  status: ('A' for Active; 'I' for Inactive)
REMARK    1  A    between atoms: C_2  and  O_3 
REMARK    2  A    between atoms: C_9  and  C_15 
REMARK    3  A    between atoms: C_18  and  O_19 
ROOT
ATOM      1  C   WST d          14.789  50.853  58.635  0.00  0.00     0.013 A 
ATOM      2  C   WST d          16.110  50.747  58.134  0.00  0.00     0.075 A 
ATOM      3  C   WST d          16.360  50.085  56.916  0.00  0.00    -0.050 A 
ATOM      4  C   WST d          15.297  49.535  56.179  0.00  0.00    -0.078 A 
ATOM      5  C   WST d          13.981  49.652  56.657  0.00  0.00    -0.050 A 
ATOM      6  C   WST d          13.723  50.307  57.877  0.00  0.00     0.079 A 
ATOM      7  O   WST d          12.425  50.358  58.318  0.00  0.00    -0.340 OA
ATOM      8  C   WST d          12.047  51.562  59.024  0.00  0.00     0.074 C 
ATOM      9  C   WST d          12.985  51.750  60.262  0.00  0.00    -0.017 C 
ATOM     10  C   WST d          14.500  51.549  59.928  0.00  0.00    -0.017 C 
ATOM     11  C   WST d          15.103  50.785  61.145  0.00  0.00    -0.057 C 
ATOM     12  C   WST d          14.021  50.787  62.238  0.00  0.00    -0.064 C 
ATOM     13  C   WST d          12.705  50.797  61.448  0.00  0.00    -0.058 C 
ATOM     14  H   WST d          17.314  49.995  56.561  0.00  0.00     0.087 H 
ATOM     15  H   WST d          15.478  49.064  55.291  0.00  0.00     0.083 H 
ATOM     16  H   WST d          13.211  49.252  56.115  0.00  0.00     0.087 H 
ATOM     17  H   WST d          12.210  52.401  58.336  0.00  0.00     0.092 H 
ATOM     18  H   WST d          12.851  52.773  60.637  0.00  0.00     0.045 H 
ATOM     19  H   WST d          14.960  52.544  59.869  0.00  0.00     0.048 H 
ATOM     20  H   WST d          16.020  51.265  61.504  0.00  0.00     0.034 H 
ATOM     21  H   WST d          15.335  49.744  60.890  0.00  0.00     0.034 H 
ATOM     22  H   WST d          14.102  51.691  62.850  0.00  0.00     0.033 H 
ATOM     23  H   WST d          14.094  49.909  62.886  0.00  0.00     0.033 H 
ATOM     24  H   WST d          12.475  49.789  61.089  0.00  0.00     0.033 H 
ATOM     25  H   WST d          11.878  51.155  62.069  0.00  0.00     0.033 H 
ENDROOT
BRANCH   8  26
ATOM     26  C   WST d          10.594  51.579  59.388  0.00  0.00    -0.028 A 
ATOM     27  C   WST d           9.719  50.517  59.045  0.00  0.00    -0.072 A 
ATOM     28  C   WST d           8.358  50.559  59.401  0.00  0.00    -0.050 A 
ATOM     29  H   WST d          10.064  49.695  58.543  0.00  0.00     0.084 H 
ATOM     30  C   WST d           7.843  51.661  60.107  0.00  0.00     0.065 A 
ATOM     31  H   WST d           7.747  49.779  59.150  0.00  0.00     0.087 H 
ATOM     32  C   WST d           8.696  52.728  60.448  0.00  0.00    -0.050 A 
ATOM     33  C   WST d          10.058  52.686  60.092  0.00  0.00    -0.072 A 
ATOM     34  H   WST d           8.330  53.535  60.957  0.00  0.00     0.087 H 
ATOM     35  H   WST d          10.659  53.473  60.354  0.00  0.00     0.084 H 
BRANCH  30  36
ATOM     36  O   WST d           6.533  51.681  60.460  0.00  0.00    -0.361 OA
ATOM     37  H   WST d           6.273  52.624  60.458  0.00  0.00     0.217 HD
ENDBRANCH  30  36
ENDBRANCH   8  26
BRANCH   2  38
ATOM     38  O   WST d          17.153  51.287  58.815  0.00  0.00    -0.360 OA
ATOM     39  H   WST d          17.225  52.215  58.502  0.00  0.00     0.217 HD
ENDBRANCH   2  38
TORSDOF 3
