REMARK  5 active torsions:
REMARK  status: ('A' for Active; 'I' for Inactive)
REMARK    1  A    between atoms: C4_7  and  S_1 
REMARK    2  A    between atoms: S_1  and  N3S_18 
REMARK       I    between atoms: N'_2  and  C7_10 
REMARK    3  A    between atoms: C1'_14  and  N'_2 
REMARK    4  A    between atoms: C7_10  and  C1_4 
REMARK    5  A    between atoms: C1'_14  and  C2'_16 
ROOT
ATOM      1  C1  RYJ d          17.198   3.917  15.101  0.00  0.00     0.032 A 
ATOM      2  C2  RYJ d          17.903   1.652  15.357  0.00  0.00    -0.059 A 
ATOM      3  C3  RYJ d          18.201   3.053  15.372  0.00  0.00    -0.066 A 
ATOM      4  C4  RYJ d          16.642   1.138  14.931  0.00  0.00     0.079 A 
ATOM      5  C5  RYJ d          15.954   3.445  14.754  0.00  0.00    -0.066 A 
ATOM      6  C6  RYJ d          15.650   2.093  14.668  0.00  0.00    -0.059 A 
ATOM      7  H2  RYJ d          18.666   0.954  15.684  0.00  0.00     0.085 H 
ATOM      8  H3  RYJ d          19.201   3.409  15.593  0.00  0.00     0.085 H 
ATOM      9  H4  RYJ d          15.172   4.163  14.537  0.00  0.00     0.085 H 
ATOM     10  H5  RYJ d          14.649   1.777  14.398  0.00  0.00     0.085 H 
ENDROOT
BRANCH   1  11
ATOM     11  C7  RYJ d          17.484   5.391  15.128  0.00  0.00     0.251 C 
ATOM     12  N'  RYJ d          18.421   5.884  15.917  0.00  0.00    -0.348 N 
ATOM     13  H1  RYJ d          18.976   5.265  16.471  0.00  0.00     0.163 HD
ATOM     14  O'  RYJ d          16.778   6.166  14.425  0.00  0.00    -0.268 OA
BRANCH  12  15
ATOM     15  C1' RYJ d          18.656   7.335  15.989  0.00  0.00     0.086 C 
ATOM     16  H6  RYJ d          19.030   7.602  16.988  0.00  0.00     0.077 H 
ATOM     17  H7  RYJ d          17.718   7.874  15.792  0.00  0.00     0.077 H 
BRANCH  15  18
ATOM     18  C2' RYJ d          19.699   7.708  14.929  0.00  0.00     0.403 C 
ATOM     19  F2' RYJ d          19.999   9.022  14.901  0.00  0.00    -0.169 F 
ATOM     20  F2' RYJ d          19.328   7.540  13.689  0.00  0.00    -0.169 F 
ATOM     21  F2' RYJ d          20.810   7.019  15.181  0.00  0.00    -0.169 F 
ENDBRANCH  15  18
ENDBRANCH  12  15
ENDBRANCH   1  11
BRANCH   4  22
ATOM     22  S   RYJ d          16.356  -0.527  14.874  0.00  0.00     0.256 S 
ATOM     23  O1S RYJ d          15.069  -0.759  15.497  0.00  0.00    -0.201 OA
ATOM     24  O2S RYJ d          17.490  -1.258  15.691  0.00  0.00    -0.201 OA
BRANCH  22  25
ATOM     25  N3S RYJ d          16.459  -0.849  13.438  0.00  0.00    -0.324 N 
ATOM     26  H8  RYJ d          15.843  -0.412  12.782  0.00  0.00     0.169 HD
ATOM     27  H9  RYJ d          17.146  -1.503  13.120  0.00  0.00     0.169 HD
ENDBRANCH  22  25
ENDBRANCH   4  22
TORSDOF 5
