REMARK  5 active torsions:
REMARK  status: ('A' for Active; 'I' for Inactive)
REMARK    1  A    between atoms: C4_7  and  S_1 
REMARK    2  A    between atoms: S_1  and  N3S_18 
REMARK       I    between atoms: N'_2  and  C7_10 
REMARK    3  A    between atoms: C1'_14  and  N'_2 
REMARK    4  A    between atoms: C7_10  and  C1_4 
REMARK    5  A    between atoms: C1'_14  and  C2'_16 
ROOT
ATOM      1  C1  RYJ d          16.326   4.243  14.437  0.00  0.00     0.032 A 
ATOM      2  C2  RYJ d          14.765   3.028  15.772  0.00  0.00    -0.059 A 
ATOM      3  C3  RYJ d          15.075   4.154  14.943  0.00  0.00    -0.066 A 
ATOM      4  C4  RYJ d          15.752   2.089  16.196  0.00  0.00     0.079 A 
ATOM      5  C5  RYJ d          17.277   3.310  14.778  0.00  0.00    -0.066 A 
ATOM      6  C6  RYJ d          17.026   2.244  15.630  0.00  0.00    -0.059 A 
ATOM      7  H2  RYJ d          13.739   2.883  16.090  0.00  0.00     0.085 H 
ATOM      8  H3  RYJ d          14.331   4.912  14.727  0.00  0.00     0.085 H 
ATOM      9  H4  RYJ d          18.273   3.412  14.360  0.00  0.00     0.085 H 
ATOM     10  H5  RYJ d          17.812   1.532  15.858  0.00  0.00     0.085 H 
ENDROOT
BRANCH   1  11
ATOM     11  C7  RYJ d          16.668   5.406  13.550  0.00  0.00     0.251 C 
ATOM     12  N'  RYJ d          15.804   5.853  12.658  0.00  0.00    -0.348 N 
ATOM     13  H1  RYJ d          14.931   5.381  12.536  0.00  0.00     0.163 HD
ATOM     14  O'  RYJ d          17.818   5.920  13.630  0.00  0.00    -0.268 OA
BRANCH  12  15
ATOM     15  C1' RYJ d          16.112   7.038  11.842  0.00  0.00     0.086 C 
ATOM     16  H6  RYJ d          17.093   6.913  11.361  0.00  0.00     0.077 H 
ATOM     17  H7  RYJ d          16.129   7.934  12.480  0.00  0.00     0.077 H 
BRANCH  15  18
ATOM     18  C2' RYJ d          15.024   7.184  10.772  0.00  0.00     0.403 C 
ATOM     19  F2' RYJ d          13.788   7.370  11.275  0.00  0.00    -0.169 F 
ATOM     20  F2' RYJ d          14.808   6.125  10.040  0.00  0.00    -0.169 F 
ATOM     21  F2' RYJ d          15.337   8.226  10.003  0.00  0.00    -0.169 F 
ENDBRANCH  15  18
ENDBRANCH  12  15
ENDBRANCH   1  11
BRANCH   4  22
ATOM     22  S   RYJ d          15.351   0.809  17.224  0.00  0.00     0.256 S 
ATOM     23  O1S RYJ d          16.498  -0.073  17.274  0.00  0.00    -0.201 OA
ATOM     24  O2S RYJ d          14.111   0.048  16.615  0.00  0.00    -0.201 OA
BRANCH  22  25
ATOM     25  N3S RYJ d          14.981   1.479  18.486  0.00  0.00    -0.324 N 
ATOM     26  H8  RYJ d          14.096   1.937  18.568  0.00  0.00     0.169 HD
ATOM     27  H9  RYJ d          15.615   1.475  19.259  0.00  0.00     0.169 HD
ENDBRANCH  22  25
ENDBRANCH   4  22
TORSDOF 5
