REMARK  5 active torsions:
REMARK  status: ('A' for Active; 'I' for Inactive)
REMARK    1  A    between atoms: C4_7  and  S_1 
REMARK    2  A    between atoms: S_1  and  N3S_18 
REMARK       I    between atoms: N'_2  and  C7_10 
REMARK    3  A    between atoms: C1'_14  and  N'_2 
REMARK    4  A    between atoms: C7_10  and  C1_4 
REMARK    5  A    between atoms: C1'_14  and  C2'_16 
ROOT
ATOM      1  C1  RYJ d          16.556   3.993  14.679  0.00  0.00     0.032 A 
ATOM      2  C2  RYJ d          14.901   2.385  15.290  0.00  0.00    -0.059 A 
ATOM      3  C3  RYJ d          15.252   3.639  14.692  0.00  0.00    -0.066 A 
ATOM      4  C4  RYJ d          15.844   1.578  15.993  0.00  0.00     0.079 A 
ATOM      5  C5  RYJ d          17.494   3.194  15.291  0.00  0.00    -0.066 A 
ATOM      6  C6  RYJ d          17.178   2.006  15.936  0.00  0.00    -0.059 A 
ATOM      7  H2  RYJ d          13.877   2.037  15.206  0.00  0.00     0.085 H 
ATOM      8  H3  RYJ d          14.494   4.284  14.262  0.00  0.00     0.085 H 
ATOM      9  H4  RYJ d          18.532   3.509  15.269  0.00  0.00     0.085 H 
ATOM     10  H5  RYJ d          17.960   1.412  16.394  0.00  0.00     0.085 H 
ENDROOT
BRANCH   1  11
ATOM     11  C7  RYJ d          16.948   5.294  14.040  0.00  0.00     0.251 C 
ATOM     12  N'  RYJ d          18.117   5.849  14.300  0.00  0.00    -0.348 N 
ATOM     13  H1  RYJ d          18.728   5.426  14.969  0.00  0.00     0.163 HD
ATOM     14  O'  RYJ d          16.122   5.881  13.289  0.00  0.00    -0.268 OA
BRANCH  12  15
ATOM     15  C1' RYJ d          18.530   7.086  13.616  0.00  0.00     0.086 C 
ATOM     16  H6  RYJ d          17.653   7.569  13.160  0.00  0.00     0.077 H 
ATOM     17  H7  RYJ d          19.267   6.849  12.834  0.00  0.00     0.077 H 
BRANCH  15  18
ATOM     18  C2' RYJ d          19.158   8.025  14.653  0.00  0.00     0.403 C 
ATOM     19  F2' RYJ d          19.311   9.291  14.217  0.00  0.00    -0.169 F 
ATOM     20  F2' RYJ d          20.392   7.755  14.984  0.00  0.00    -0.169 F 
ATOM     21  F2' RYJ d          18.377   8.033  15.731  0.00  0.00    -0.169 F 
ENDBRANCH  15  18
ENDBRANCH  12  15
ENDBRANCH   1  11
BRANCH   4  22
ATOM     22  S   RYJ d          15.371   0.134  16.735  0.00  0.00     0.256 S 
ATOM     23  O1S RYJ d          16.176  -0.013  17.929  0.00  0.00    -0.201 OA
ATOM     24  O2S RYJ d          15.658  -1.056  15.741  0.00  0.00    -0.201 OA
BRANCH  22  25
ATOM     25  N3S RYJ d          13.919   0.307  16.936  0.00  0.00    -0.324 N 
ATOM     26  H8  RYJ d          13.564   0.535  17.842  0.00  0.00     0.169 HD
ATOM     27  H9  RYJ d          13.291   0.195  16.166  0.00  0.00     0.169 HD
ENDBRANCH  22  25
ENDBRANCH   4  22
TORSDOF 5
