REMARK  5 active torsions:
REMARK  status: ('A' for Active; 'I' for Inactive)
REMARK    1  A    between atoms: C4_7  and  S_1 
REMARK    2  A    between atoms: S_1  and  N3S_18 
REMARK       I    between atoms: N'_2  and  C7_10 
REMARK    3  A    between atoms: C1'_14  and  N'_2 
REMARK    4  A    between atoms: C7_10  and  C1_4 
REMARK    5  A    between atoms: C1'_14  and  C2'_16 
ROOT
ATOM      1  C1  RYJ d          15.604   2.401  13.239  0.00  0.00     0.032 A 
ATOM      2  C2  RYJ d          16.087   0.737  14.880  0.00  0.00    -0.059 A 
ATOM      3  C3  RYJ d          16.219   1.237  13.544  0.00  0.00    -0.066 A 
ATOM      4  C4  RYJ d          15.223   1.338  15.844  0.00  0.00     0.079 A 
ATOM      5  C5  RYJ d          14.821   3.035  14.175  0.00  0.00    -0.066 A 
ATOM      6  C6  RYJ d          14.620   2.543  15.458  0.00  0.00    -0.059 A 
ATOM      7  H2  RYJ d          16.666  -0.132  15.170  0.00  0.00     0.085 H 
ATOM      8  H3  RYJ d          16.795   0.698  12.801  0.00  0.00     0.085 H 
ATOM      9  H4  RYJ d          14.337   3.965  13.898  0.00  0.00     0.085 H 
ATOM     10  H5  RYJ d          13.998   3.089  16.158  0.00  0.00     0.085 H 
ENDROOT
BRANCH   1  11
ATOM     11  C7  RYJ d          15.746   2.954  11.850  0.00  0.00     0.251 C 
ATOM     12  N'  RYJ d          15.723   4.255  11.634  0.00  0.00    -0.348 N 
ATOM     13  H1  RYJ d          15.653   4.884  12.408  0.00  0.00     0.163 HD
ATOM     14  O'  RYJ d          15.833   2.153  10.878  0.00  0.00    -0.268 OA
BRANCH  12  15
ATOM     15  C1' RYJ d          15.798   4.792  10.265  0.00  0.00     0.086 C 
ATOM     16  H6  RYJ d          14.948   4.422   9.674  0.00  0.00     0.077 H 
ATOM     17  H7  RYJ d          16.739   4.474   9.793  0.00  0.00     0.077 H 
BRANCH  15  18
ATOM     18  C2' RYJ d          15.749   6.322  10.343  0.00  0.00     0.403 C 
ATOM     19  F2' RYJ d          15.810   6.929   9.141  0.00  0.00    -0.169 F 
ATOM     20  F2' RYJ d          16.768   6.890  10.929  0.00  0.00    -0.169 F 
ATOM     21  F2' RYJ d          14.613   6.670  10.943  0.00  0.00    -0.169 F 
ENDBRANCH  15  18
ENDBRANCH  12  15
ENDBRANCH   1  11
BRANCH   4  22
ATOM     22  S   RYJ d          15.053   0.677  17.391  0.00  0.00     0.256 S 
ATOM     23  O1S RYJ d          15.157   1.771  18.334  0.00  0.00    -0.201 OA
ATOM     24  O2S RYJ d          16.224  -0.352  17.626  0.00  0.00    -0.201 OA
BRANCH  22  25
ATOM     25  N3S RYJ d          13.753  -0.019  17.331  0.00  0.00    -0.324 N 
ATOM     26  H8  RYJ d          12.919   0.496  17.127  0.00  0.00     0.169 HD
ATOM     27  H9  RYJ d          13.705  -1.004  17.493  0.00  0.00     0.169 HD
ENDBRANCH  22  25
ENDBRANCH   4  22
TORSDOF 5
