REMARK  8 active torsions:
REMARK  status: ('A' for Active; 'I' for Inactive)
REMARK    1  A    between atoms: C_1  and  C_2 
REMARK    2  A    between atoms: C_2  and  C_4 
REMARK    3  A    between atoms: C_4  and  C_5 
REMARK    4  A    between atoms: C_5  and  C_6 
REMARK    5  A    between atoms: C_6  and  C_7 
REMARK    6  A    between atoms: C_7  and  N_8 
REMARK    7  A    between atoms: N_12  and  C_13 
REMARK    8  A    between atoms: N_17  and  C_18 
ROOT
ATOM      1  N   PNX d           0.008   9.736  17.326  0.00  0.00    -0.264 N 
ATOM      2  C   PNX d           1.293   9.325  17.189  0.00  0.00     0.282 A 
ATOM      3  O   PNX d           2.143   9.975  16.595  0.00  0.00    -0.265 OA
ATOM      4  C   PNX d           1.715   8.125  17.739  0.00  0.00     0.151 A 
ATOM      5  N   PNX d           2.897   7.478  17.785  0.00  0.00    -0.338 N 
ATOM      6  C   PNX d           2.679   6.329  18.456  0.00  0.00     0.068 A 
ATOM      7  N   PNX d           1.395   6.240  18.843  0.00  0.00    -0.223 NA
ATOM      8  C   PNX d           0.777   7.350  18.409  0.00  0.00     0.167 A 
ATOM      9  N   PNX d          -0.529   7.760  18.541  0.00  0.00    -0.286 N 
ATOM     10  C   PNX d          -0.871   8.962  18.025  0.00  0.00     0.333 A 
ATOM     11  O   PNX d          -2.024   9.353  18.196  0.00  0.00    -0.246 OA
ATOM     12  H   PNX d           3.379   5.606  18.640  0.00  0.00     0.143 H 
ENDROOT
BRANCH   1  13
ATOM     13  C   PNX d          -0.434  11.003  16.727  0.00  0.00     0.007 C 
ATOM     14  H   PNX d          -0.874  11.626  17.511  0.00  0.00     0.065 H 
ATOM     15  H   PNX d           0.391  11.597  16.325  0.00  0.00     0.065 H 
BRANCH  13  16
ATOM     16  C   PNX d          -1.469  10.855  15.572  0.00  0.00    -0.049 C 
ATOM     17  H   PNX d          -2.441  10.597  15.997  0.00  0.00     0.035 H 
ATOM     18  H   PNX d          -1.597  11.823  15.078  0.00  0.00     0.035 H 
BRANCH  16  19
ATOM     19  C   PNX d          -1.134   9.784  14.499  0.00  0.00    -0.057 C 
ATOM     20  H   PNX d          -1.067   8.815  14.997  0.00  0.00     0.033 H 
ATOM     21  H   PNX d          -1.978   9.720  13.807  0.00  0.00     0.033 H 
BRANCH  19  22
ATOM     22  C   PNX d           0.166  10.003  13.675  0.00  0.00    -0.010 C 
ATOM     23  H   PNX d           1.024   9.928  14.345  0.00  0.00     0.044 H 
ATOM     24  H   PNX d           0.268   9.178  12.967  0.00  0.00     0.044 H 
BRANCH  22  25
ATOM     25  C   PNX d           0.219  11.259  12.937  0.00  0.00     0.123 C 
ATOM     26  O   PNX d           1.091  12.076  13.210  0.00  0.00    -0.298 OA
BRANCH  25  27
ATOM     27  C   PNX d          -0.685  11.572  11.848  0.00  0.00    -0.021 C 
ATOM     28  H   PNX d          -1.338  10.731  11.602  0.00  0.00     0.037 H 
ATOM     29  H   PNX d          -0.112  11.834  10.953  0.00  0.00     0.037 H 
ATOM     30  H   PNX d          -1.311  12.420  12.132  0.00  0.00     0.037 H 
ENDBRANCH  25  27
ENDBRANCH  22  25
ENDBRANCH  19  22
ENDBRANCH  16  19
ENDBRANCH  13  16
ENDBRANCH   1  13
BRANCH   9  31
ATOM     31  C   PNX d          -1.493   6.900  19.194  0.00  0.00    -0.008 C 
ATOM     32  H   PNX d          -1.075   5.950  19.532  0.00  0.00     0.057 H 
ATOM     33  H   PNX d          -2.303   6.668  18.498  0.00  0.00     0.057 H 
ATOM     34  H   PNX d          -1.913   7.406  20.066  0.00  0.00     0.057 H 
ENDBRANCH   9  31
BRANCH   5  35
ATOM     35  C   PNX d           4.151   7.902  17.231  0.00  0.00    -0.013 C 
ATOM     36  H   PNX d           4.937   7.159  17.387  0.00  0.00     0.057 H 
ATOM     37  H   PNX d           4.463   8.836  17.702  0.00  0.00     0.057 H 
ATOM     38  H   PNX d           4.043   8.060  16.157  0.00  0.00     0.057 H 
ENDBRANCH   5  35
TORSDOF 8
