REMARK  8 active torsions:
REMARK  status: ('A' for Active; 'I' for Inactive)
REMARK    1  A    between atoms: CAA_1  and  CAM_2 
REMARK    2  A    between atoms: CAM_2  and  CAJ_4 
REMARK    3  A    between atoms: CAJ_4  and  CAH_5 
REMARK    4  A    between atoms: CAH_5  and  CAI_6 
REMARK    5  A    between atoms: CAI_6  and  CAK_7 
REMARK    6  A    between atoms: CAK_7  and  N1_8 
REMARK    7  A    between atoms: N7_12  and  CAB_13 
REMARK    8  A    between atoms: N3_17  and  CAC_18 
ROOT
ATOM      1  N1  PNX d          -2.187   8.334  17.515  0.00  0.00    -0.264 N 
ATOM      2  C6  PNX d          -3.047   8.059  18.605  0.00  0.00     0.282 A 
ATOM      3  O6  PNX d          -4.231   8.391  18.534  0.00  0.00    -0.265 OA
ATOM      4  C5  PNX d          -2.506   7.416  19.748  0.00  0.00     0.151 A 
ATOM      5  N7  PNX d          -3.057   7.010  20.905  0.00  0.00    -0.338 N 
ATOM      6  C8  PNX d          -2.114   6.422  21.664  0.00  0.00     0.068 A 
ATOM      7  N9  PNX d          -0.936   6.439  20.994  0.00  0.00    -0.223 NA
ATOM      8  C4  PNX d          -1.144   7.039  19.808  0.00  0.00     0.167 A 
ATOM      9  N3  PNX d          -0.272   7.331  18.739  0.00  0.00    -0.286 N 
ATOM     10  C2  PNX d          -0.790   7.991  17.634  0.00  0.00     0.333 A 
ATOM     11  O2  PNX d          -0.020   8.226  16.714  0.00  0.00    -0.246 OA
ATOM     12  H15 PNX d          -2.272   6.000  22.655  0.00  0.00     0.143 H 
ENDROOT
BRANCH   1  13
ATOM     13  CAK PNX d          -2.722   9.063  16.284  0.00  0.00     0.007 C 
ATOM     14  H10 PNX d          -2.381  10.108  16.296  0.00  0.00     0.065 H 
ATOM     15  H11 PNX d          -2.354   8.568  15.373  0.00  0.00     0.065 H 
BRANCH  13  16
ATOM     16  CAI PNX d          -4.299   9.020  16.311  0.00  0.00    -0.049 C 
ATOM     17  H8  PNX d          -4.609   8.188  16.960  0.00  0.00     0.035 H 
ATOM     18  H9  PNX d          -4.661   9.969  16.733  0.00  0.00     0.035 H 
BRANCH  16  19
ATOM     19  CAH PNX d          -4.968   8.822  14.911  0.00  0.00    -0.057 C 
ATOM     20  H6  PNX d          -4.776   9.697  14.273  0.00  0.00     0.033 H 
ATOM     21  H7  PNX d          -4.569   7.919  14.425  0.00  0.00     0.033 H 
BRANCH  19  22
ATOM     22  CAJ PNX d          -6.479   8.667  15.156  0.00  0.00    -0.010 C 
ATOM     23  H4  PNX d          -6.635   8.152  16.115  0.00  0.00     0.044 H 
ATOM     24  H5  PNX d          -6.939   9.666  15.197  0.00  0.00     0.044 H 
BRANCH  22  25
ATOM     25  CAM PNX d          -7.160   7.838  14.014  0.00  0.00     0.123 C 
ATOM     26  OAD PNX d          -7.562   6.696  14.217  0.00  0.00    -0.298 OA
BRANCH  25  27
ATOM     27  CAA PNX d          -7.282   8.426  12.630  0.00  0.00    -0.021 C 
ATOM     28  H1  PNX d          -6.876   9.448  12.629  0.00  0.00     0.037 H 
ATOM     29  H2  PNX d          -8.341   8.451  12.335  0.00  0.00     0.037 H 
ATOM     30  H3  PNX d          -6.717   7.806  11.918  0.00  0.00     0.037 H 
ENDBRANCH  25  27
ENDBRANCH  22  25
ENDBRANCH  19  22
ENDBRANCH  16  19
ENDBRANCH  13  16
ENDBRANCH   1  13
BRANCH   9  31
ATOM     31  CAC PNX d           1.197   6.957  18.757  0.00  0.00    -0.008 C 
ATOM     32  H16 PNX d           1.434   6.445  19.701  0.00  0.00     0.057 H 
ATOM     33  H17 PNX d           1.809   7.868  18.671  0.00  0.00     0.057 H 
ATOM     34  H18 PNX d           1.416   6.288  17.912  0.00  0.00     0.057 H 
ENDBRANCH   9  31
BRANCH   5  35
ATOM     35  CAB PNX d          -4.495   7.192  21.258  0.00  0.00    -0.013 C 
ATOM     36  H12 PNX d          -4.684   6.772  22.257  0.00  0.00     0.057 H 
ATOM     37  H13 PNX d          -5.123   6.674  20.518  0.00  0.00     0.057 H 
ATOM     38  H14 PNX d          -4.740   8.265  21.260  0.00  0.00     0.057 H 
ENDBRANCH   5  35
TORSDOF 8
