REMARK  4 active torsions:
REMARK  status: ('A' for Active; 'I' for Inactive)
REMARK    1  A    between atoms: C7_6  and  C5_3 
REMARK    2  A    between atoms: C11_5  and  N5_20 
REMARK       I    between atoms: N6_22  and  C7_6 
REMARK    3  A    between atoms: C8_7  and  C12_10 
REMARK    4  A    between atoms: C10_9  and  N6_22 
ROOT
ATOM      1  C8  MOL d          59.997  10.938   6.099  0.00  0.00     0.055 A 
ATOM      2  C9  MOL d          59.077  10.595   5.112  0.00  0.00    -0.013 A 
ATOM      3  C10 MOL d          57.887  10.444   5.739  0.00  0.00     0.134 A 
ATOM      4  N5  MOL d          58.119  10.685   7.069  0.00  0.00    -0.217 N 
ATOM      5  N4  MOL d          59.443  11.003   7.281  0.00  0.00    -0.171 NA
ATOM      6  H4  MOL d          59.273  10.473   4.057  0.00  0.00     0.092 H 
ENDROOT
BRANCH   3   7
ATOM      7  N6  MOL d          56.595  10.118   5.185  0.00  0.00    -0.307 N 
ATOM      8  C7  MOL d          56.222   9.797   3.934  0.00  0.00     0.262 C 
ATOM      9  O1  MOL d          57.127   9.752   3.115  0.00  0.00    -0.267 OA
ATOM     10  H12 MOL d          55.839  10.135   5.854  0.00  0.00     0.170 HD
BRANCH   8  11
ATOM     11  C5  MOL d          54.831   9.537   3.659  0.00  0.00     0.099 A 
ATOM     12  C6  MOL d          54.292   9.195   2.420  0.00  0.00     0.041 A 
ATOM     13  N3  MOL d          52.994   9.017   2.469  0.00  0.00    -0.178 NA
ATOM     14  H3  MOL d          54.879   9.088   1.519  0.00  0.00     0.119 H 
ATOM     15  N2  MOL d          52.682   9.250   3.772  0.00  0.00    -0.226 N 
ATOM     16  C4  MOL d          51.421   9.187   4.332  0.00  0.00     0.007 A 
ATOM     17  C3  MOL d          53.778   9.571   4.537  0.00  0.00     0.167 A 
ATOM     18  C1  MOL d          51.321   9.457   5.670  0.00  0.00    -0.049 A 
ATOM     19  H1  MOL d          50.553   8.935   3.741  0.00  0.00     0.115 H 
ATOM     20  C2  MOL d          52.482   9.790   6.442  0.00  0.00     0.006 A 
ATOM     21  H14 MOL d          50.354   9.420   6.150  0.00  0.00     0.087 H 
ATOM     22  N1  MOL d          53.664   9.847   5.908  0.00  0.00    -0.240 NA
ATOM     23  H13 MOL d          52.371   9.998   7.496  0.00  0.00     0.114 H 
ENDBRANCH   8  11
ENDBRANCH   3   7
BRANCH   4  24
ATOM     24  C11 MOL d          57.134  10.624   8.111  0.00  0.00     0.062 A 
ATOM     25  C13 MOL d          56.456   9.426   8.346  0.00  0.00    -0.055 A 
ATOM     26  C14 MOL d          55.481   9.388   9.337  0.00  0.00    -0.079 A 
ATOM     27  H8  MOL d          56.686   8.543   7.769  0.00  0.00     0.087 H 
ATOM     28  C15 MOL d          55.196  10.532  10.083  0.00  0.00    -0.062 A 
ATOM     29  H2  MOL d          54.943   8.471   9.530  0.00  0.00     0.083 H 
ATOM     30  C16 MOL d          55.889  11.720   9.846  0.00  0.00     0.036 A 
ATOM     31  H10 MOL d          54.434  10.499  10.847  0.00  0.00     0.086 H 
ATOM     32 CL1  MOL d          55.525  13.099  10.777  0.00  0.00    -0.084 Cl
ATOM     33  C17 MOL d          56.867  11.772   8.858  0.00  0.00    -0.034 A 
ATOM     34  H11 MOL d          57.410  12.686   8.672  0.00  0.00     0.089 H 
ENDBRANCH   4  24
BRANCH   1  35
ATOM     35  C12 MOL d          61.423  11.195   5.840  0.00  0.00    -0.034 C 
ATOM     36  H5  MOL d          61.626  11.075   4.776  0.00  0.00     0.035 H 
ATOM     37  H6  MOL d          62.028  10.488   6.408  0.00  0.00     0.035 H 
ATOM     38  H7  MOL d          61.670  12.212   6.145  0.00  0.00     0.035 H 
ENDBRANCH   1  35
TORSDOF 4
