REMARK  4 active torsions:
REMARK  status: ('A' for Active; 'I' for Inactive)
REMARK    1  A    between atoms: C7_6  and  C5_3 
REMARK    2  A    between atoms: C11_5  and  N5_20 
REMARK       I    between atoms: N6_22  and  C7_6 
REMARK    3  A    between atoms: C8_7  and  C12_10 
REMARK    4  A    between atoms: C10_9  and  N6_22 
ROOT
ATOM      1  C8  MOL d          53.429   7.452   4.151  0.00  0.00     0.055 A 
ATOM      2  C9  MOL d          54.435   8.276   4.646  0.00  0.00    -0.013 A 
ATOM      3  C10 MOL d          55.426   8.261   3.724  0.00  0.00     0.134 A 
ATOM      4  N5  MOL d          54.993   7.450   2.707  0.00  0.00    -0.217 N 
ATOM      5  N4  MOL d          53.744   6.941   2.990  0.00  0.00    -0.171 NA
ATOM      6  H4  MOL d          54.428   8.820   5.580  0.00  0.00     0.092 H 
ENDROOT
BRANCH   3   7
ATOM      7  N6  MOL d          56.709   8.921   3.747  0.00  0.00    -0.307 N 
ATOM      8  C7  MOL d          57.246   9.785   4.626  0.00  0.00     0.262 C 
ATOM      9  O1  MOL d          56.527  10.087   5.566  0.00  0.00    -0.267 OA
ATOM     10  H12 MOL d          57.308   8.694   2.967  0.00  0.00     0.170 HD
BRANCH   8  11
ATOM     11  C5  MOL d          58.582  10.276   4.403  0.00  0.00     0.099 A 
ATOM     12  C6  MOL d          59.272  11.172   5.219  0.00  0.00     0.041 A 
ATOM     13  N3  MOL d          60.473  11.440   4.768  0.00  0.00    -0.178 NA
ATOM     14  H3  MOL d          58.862  11.598   6.123  0.00  0.00     0.119 H 
ATOM     15  N2  MOL d          60.567  10.700   3.630  0.00  0.00    -0.226 N 
ATOM     16  C4  MOL d          61.656  10.641   2.783  0.00  0.00     0.007 A 
ATOM     17  C3  MOL d          59.431   9.971   3.369  0.00  0.00     0.167 A 
ATOM     18  C1  MOL d          61.548   9.831   1.686  0.00  0.00    -0.049 A 
ATOM     19  H1  MOL d          62.553  11.209   2.978  0.00  0.00     0.115 H 
ATOM     20  C2  MOL d          60.349   9.083   1.440  0.00  0.00     0.006 A 
ATOM     21  H14 MOL d          62.375   9.755   0.996  0.00  0.00     0.087 H 
ATOM     22  N1  MOL d          59.330   9.144   2.241  0.00  0.00    -0.240 NA
ATOM     23  H13 MOL d          60.293   8.452   0.565  0.00  0.00     0.114 H 
ENDBRANCH   8  11
ENDBRANCH   3   7
BRANCH   4  24
ATOM     24  C11 MOL d          55.724   7.154   1.508  0.00  0.00     0.062 A 
ATOM     25  C13 MOL d          56.089   8.196   0.652  0.00  0.00    -0.055 A 
ATOM     26  C14 MOL d          56.825   7.901  -0.491  0.00  0.00    -0.079 A 
ATOM     27  H8  MOL d          55.805   9.214   0.874  0.00  0.00     0.087 H 
ATOM     28  C15 MOL d          57.182   6.582  -0.772  0.00  0.00    -0.062 A 
ATOM     29  H2  MOL d          57.121   8.695  -1.162  0.00  0.00     0.083 H 
ATOM     30  C16 MOL d          56.799   5.549   0.084  0.00  0.00     0.036 A 
ATOM     31  H10 MOL d          57.757   6.359  -1.659  0.00  0.00     0.086 H 
ATOM     32 CL1  MOL d          57.243   3.947  -0.289  0.00  0.00    -0.084 Cl
ATOM     33  C17 MOL d          56.063   5.830   1.231  0.00  0.00    -0.034 A 
ATOM     34  H11 MOL d          55.760   5.035   1.896  0.00  0.00     0.089 H 
ENDBRANCH   4  24
BRANCH   1  35
ATOM     35  C12 MOL d          52.163   7.188   4.854  0.00  0.00    -0.034 C 
ATOM     36  H5  MOL d          52.150   7.733   5.797  0.00  0.00     0.035 H 
ATOM     37  H6  MOL d          52.072   6.120   5.050  0.00  0.00     0.035 H 
ATOM     38  H7  MOL d          51.328   7.516   4.234  0.00  0.00     0.035 H 
ENDBRANCH   1  35
TORSDOF 4
