REMARK  4 active torsions:
REMARK  status: ('A' for Active; 'I' for Inactive)
REMARK    1  A    between atoms: C7_6  and  C5_3 
REMARK    2  A    between atoms: C11_5  and  N5_20 
REMARK       I    between atoms: N6_22  and  C7_6 
REMARK    3  A    between atoms: C8_7  and  C12_10 
REMARK    4  A    between atoms: C10_9  and  N6_22 
ROOT
ATOM      1  C8  MOL d          52.271   6.974   0.968  0.00  0.00     0.055 A 
ATOM      2  C9  MOL d          53.636   7.167   1.161  0.00  0.00    -0.013 A 
ATOM      3  C10 MOL d          53.765   7.801   2.350  0.00  0.00     0.134 A 
ATOM      4  N5  MOL d          52.495   7.960   2.842  0.00  0.00    -0.217 N 
ATOM      5  N4  MOL d          51.566   7.447   1.962  0.00  0.00    -0.171 NA
ATOM      6  H4  MOL d          54.433   6.871   0.496  0.00  0.00     0.092 H 
ENDROOT
BRANCH   3   7
ATOM      7  N6  MOL d          54.958   8.261   3.018  0.00  0.00    -0.307 N 
ATOM      8  C7  MOL d          56.258   8.125   2.704  0.00  0.00     0.262 C 
ATOM      9  O1  MOL d          56.486   7.489   1.687  0.00  0.00    -0.267 OA
ATOM     10  H12 MOL d          54.787   8.776   3.869  0.00  0.00     0.170 HD
BRANCH   8  11
ATOM     11  C5  MOL d          57.255   8.717   3.560  0.00  0.00     0.099 A 
ATOM     12  C6  MOL d          58.635   8.662   3.370  0.00  0.00     0.041 A 
ATOM     13  N3  MOL d          59.297   9.291   4.310  0.00  0.00    -0.178 NA
ATOM     14  H3  MOL d          59.106   8.157   2.540  0.00  0.00     0.119 H 
ATOM     15  N2  MOL d          58.324   9.767   5.133  0.00  0.00    -0.226 N 
ATOM     16  C4  MOL d          58.517  10.507   6.283  0.00  0.00     0.007 A 
ATOM     17  C3  MOL d          57.057   9.438   4.711  0.00  0.00     0.167 A 
ATOM     18  C1  MOL d          57.398  10.891   6.971  0.00  0.00    -0.049 A 
ATOM     19  H1  MOL d          59.507  10.771   6.624  0.00  0.00     0.115 H 
ATOM     20  C2  MOL d          56.090  10.532   6.506  0.00  0.00     0.006 A 
ATOM     21  H14 MOL d          57.502  11.471   7.876  0.00  0.00     0.087 H 
ATOM     22  N1  MOL d          55.917   9.837   5.424  0.00  0.00    -0.240 NA
ATOM     23  H13 MOL d          55.226  10.850   7.070  0.00  0.00     0.114 H 
ENDBRANCH   8  11
ENDBRANCH   3   7
BRANCH   4  24
ATOM     24  C11 MOL d          52.156   8.577   4.092  0.00  0.00     0.062 A 
ATOM     25  C13 MOL d          51.346   9.713   4.090  0.00  0.00    -0.055 A 
ATOM     26  C14 MOL d          51.045  10.328   5.301  0.00  0.00    -0.079 A 
ATOM     27  H8  MOL d          50.958  10.108   3.163  0.00  0.00     0.087 H 
ATOM     28  C15 MOL d          51.545   9.806   6.494  0.00  0.00    -0.062 A 
ATOM     29  H2  MOL d          50.423  11.211   5.317  0.00  0.00     0.083 H 
ATOM     30  C16 MOL d          52.344   8.663   6.485  0.00  0.00     0.036 A 
ATOM     31  H10 MOL d          51.312  10.291   7.431  0.00  0.00     0.086 H 
ATOM     32 CL1  MOL d          52.934   8.043   7.958  0.00  0.00    -0.084 Cl
ATOM     33  C17 MOL d          52.652   8.037   5.281  0.00  0.00    -0.034 A 
ATOM     34  H11 MOL d          53.266   7.149   5.266  0.00  0.00     0.089 H 
ENDBRANCH   4  24
BRANCH   1  35
ATOM     35  C12 MOL d          51.693   6.318  -0.216  0.00  0.00    -0.034 C 
ATOM     36  H5  MOL d          52.493   6.018  -0.892  0.00  0.00     0.035 H 
ATOM     37  H6  MOL d          51.027   7.012  -0.727  0.00  0.00     0.035 H 
ATOM     38  H7  MOL d          51.131   5.437   0.095  0.00  0.00     0.035 H 
ENDBRANCH   1  35
TORSDOF 4
