REMARK  6 active torsions:
REMARK  status: ('A' for Active; 'I' for Inactive)
REMARK    1  A    between atoms: N1'_10  and  C1'_9 
REMARK    2  A    between atoms: C2'_11  and  O2'_12 
REMARK    3  A    between atoms: C3'_13  and  O3'_14 
REMARK    4  A    between atoms: C4'_15  and  O4'_16 
REMARK    5  A    between atoms: C5'_17  and  C6'_19 
REMARK    6  A    between atoms: C6'_19  and  O6'_20 
ROOT
ATOM      1  C1' GPK d          34.615  24.099  29.130  0.00  0.00     0.141 C 
ATOM      2  C2' GPK d          34.368  22.586  29.082  0.00  0.00     0.105 C 
ATOM      3  C3' GPK d          34.021  22.211  27.632  0.00  0.00     0.091 C 
ATOM      4  C4' GPK d          32.904  23.083  27.077  0.00  0.00     0.089 C 
ATOM      5  C5' GPK d          33.157  24.584  27.327  0.00  0.00     0.088 C 
ATOM      6  O5' GPK d          33.425  24.794  28.708  0.00  0.00    -0.353 OA
ATOM      7  H3  GPK d          35.418  24.322  28.413  0.00  0.00     0.123 H 
ATOM      8  H4  GPK d          33.521  22.331  29.735  0.00  0.00     0.093 H 
ATOM      9  H6  GPK d          34.918  22.366  27.015  0.00  0.00     0.091 H 
ATOM     10  H8  GPK d          31.964  22.813  27.581  0.00  0.00     0.091 H 
ATOM     11  H10 GPK d          34.023  24.891  26.723  0.00  0.00     0.090 H 
ENDROOT
BRANCH   1  12
ATOM     12  N1' GPK d          35.053  24.616  30.466  0.00  0.00    -0.277 N 
ATOM     13  C1  GPK d          34.218  24.461  31.599  0.00  0.00     0.030 C 
ATOM     14  C2  GPK d          34.687  24.873  32.837  0.00  0.00     0.199 C 
ATOM     15  H1  GPK d          33.226  24.025  31.500  0.00  0.00     0.117 H 
ATOM     16  F1  GPK d          33.878  24.809  33.903  0.00  0.00    -0.199 F 
ATOM     17  C3  GPK d          35.999  25.335  32.957  0.00  0.00     0.289 C 
ATOM     18  O3  GPK d          36.423  25.678  34.076  0.00  0.00    -0.265 OA
ATOM     19  N4  GPK d          36.818  25.390  31.878  0.00  0.00    -0.273 N 
ATOM     20  C5  GPK d          36.391  25.006  30.651  0.00  0.00     0.331 C 
ATOM     21  H2  GPK d          37.754  25.721  31.990  0.00  0.00     0.173 HD
ATOM     22  O5  GPK d          37.131  25.098  29.641  0.00  0.00    -0.246 OA
ENDBRANCH   1  12
BRANCH   2  23
ATOM     23  O2' GPK d          35.533  21.887  29.542  0.00  0.00    -0.388 OA
ATOM     24  H5  GPK d          36.203  21.913  28.868  0.00  0.00     0.210 HD
ENDBRANCH   2  23
BRANCH   3  25
ATOM     25  O3' GPK d          33.646  20.850  27.545  0.00  0.00    -0.390 OA
ATOM     26  H7  GPK d          33.198  20.698  26.720  0.00  0.00     0.210 HD
ENDBRANCH   3  25
BRANCH   5  27
ATOM     27  C6' GPK d          31.971  25.505  27.006  0.00  0.00     0.043 C 
ATOM     28  H11 GPK d          32.005  26.381  27.671  0.00  0.00     0.078 H 
ATOM     29  H12 GPK d          31.033  24.956  27.171  0.00  0.00     0.078 H 
BRANCH  27  30
ATOM     30  O6' GPK d          32.020  25.952  25.639  0.00  0.00    -0.398 OA
ATOM     31  H13 GPK d          31.278  26.519  25.465  0.00  0.00     0.209 HD
ENDBRANCH  27  30
ENDBRANCH   5  27
BRANCH   4  32
ATOM     32  O4' GPK d          32.776  22.787  25.676  0.00  0.00    -0.390 OA
ATOM     33  H9  GPK d          32.756  21.845  25.554  0.00  0.00     0.210 HD
ENDBRANCH   4  32
TORSDOF 6
